&HEAD CHID='FS1 MOE'/
&TIME T_END=300/
DUMP DT_RESTART = 300.0, DT_SL3D=0.25/
&MESH ID='Apartment_Mesh1', IJK=75,33,32, XB=28.2,35.7,0.0,3.3,4.0,7.2/
&VENT ID='Mesh Vent: Apartment Inlet [YMAX]', SURF_ID='OPEN', XB=35.7,35.7,0.0,3.3,4.0,7.2/
&MESH ID='Corridor_Mesh1', IJK=229,21,32, XB=3.6,26.5,7.1,9.2,4.0,7.2/
&MESH ID='Corridor_Mesh2', IJK=36,71,32, XB=0.0,3.6,7.1,14.2,4.0,7.2/
&MESH ID='Corridor_Mesh3', IJK=43,97,32, XB=1.5,5.8,14.2,23.9,4.0,7.2/
&MESH ID='Corridor_Mesh4', IJK=17,240,32, XB=26.5,28.2,0.0,24.0,4.0,7.2/
&MESH ID='Stair_Mesh_Lower1', IJK=37,25,20, XB=3.6,11.0,9.2,14.2,0.0,4.0/
&MESH ID='Stair_Mesh_Middle1', IJK=74,50,32, XB=3.6,11.0,9.2,14.2,4.0,7.2/
&MESH ID='Stair_Mesh_Upper1', IJK=37,25,142, XB=3.6,11.0,9.2,14.2,7.2,35.6/
&VENT ID='Mesh Vent: Stair_Mesh_Upper1 [ZMAX]', SURF_ID='OPEN', XB=3.6,11.0,9.2,14.2,35.6,35.6/
&RAMP ID = 'Apartment Door Hole_RAMP', T = 59.75, F=-1.0/
&RAMP ID = 'Apartment Door Hole_RAMP', T = 60.25, F=1.0/
&RAMP ID = 'Apartment Door Hole_RAMP', T = 79.75, F=1.0/
&RAMP ID = 'Apartment Door Hole_RAMP', T = 80.25, F=-1.0/
&CTRL ID = 'Apartment Door Hole', FUNCTION_TYPE = 'CUSTOM', RAMP_ID = 'Apartment Door Hole_RAMP', LATCH =.FALSE., INPUT_ID='TIME'/
&DEVC ID = 'TIME', QUANTITY='TIME', XYZ = 32.3,1.5,0.0/
&RAMP ID = 'Stair Door Hole_RAMP', T = 69.75, F=-1.0/
&RAMP ID = 'Stair Door Hole_RAMP', T = 70.25, F=1.0/
&RAMP ID = 'Stair Door Hole_RAMP', T = 89.75, F=1.0/
&RAMP ID = 'Stair Door Hole_RAMP', T = 90.25, F=-1.0/
&CTRL ID = 'Stair Door Hole', FUNCTION_TYPE = 'CUSTOM', RAMP_ID = 'Stair Door Hole_RAMP', LATCH =.FALSE., INPUT_ID='TIME'/
&DEVC ID = 'TIME', QUANTITY='TIME', XYZ = 32.3,1.5,0.0/
&SURF ID='Plasterboard',
      COLOR='GRAY 80',
      DEFAULT=.TRUE.,
      BACKING='VOID',
      MATL_ID(1,1)='GYPSUM PLASTER',
      MATL_MASS_FRACTION(1,1)=1.0,
      THICKNESS(1)=0.05/
&MATL ID='GYPSUM PLASTER',
      FYI='Quintiere, Fire Behavior - NIST NRC Validation',
      SPECIFIC_HEAT=0.84,
      CONDUCTIVITY=0.48,
      DENSITY=1440.0/
&SPEC ID='WATER VAPOR'/
&PART ID='Water01',
      SPEC_ID ='WATER VAPOR',
      DIAMETER= 500.0,
      MONODISPERSE =.TRUE.,
      AGE = 10.0,
      SAMPLING_FACTOR=1/
&PROP ID='Residential Link BS 9251'
      PART_ID = 'Water01', 
      K_Factor =40.0,
      OPERATING_PRESSURE =0.5,
      PARTICLE_VELOCITY =5.0,
      SPRAY_ANGLE = 60.0, 75.0/
&DEVC ID='SPRK1', PROP_ID = 'Residential Link BS 9251', XYZ = 33.8, 3.1,7.0, QUANTITY='TIME', SETPOINT=0.0  /
&DEVC ID='SPRK2', PROP_ID = 'Residential Link BS 9251', XYZ = 31.0, 0.3,7.0, QUANTITY='TIME', SETPOINT=0.0  /
&SURF ID='Fire',
      COLOR='RED',
      HRRPUA=510.20408163265313
      TMP_FRONT=300.0/
&REAC ID='POLYURETHANE',
      FYI='NFPA Babrauskas',
      FUEL = 'REAC_FUEL',
      C=6.3,
      H=7.1,
      O=2.1,
      N=1.0,
      SOOT_YIELD =0.1,
      HEAT_OF_COMBUSTION =20000/
&OBST ID='STEP1', XB = 7.6, 7.8, 12.7, 14.2,4.0, 4.127, SURF_ID = 'Plasterboard'/
&OBST ID='STEP1', XB = 7.4, 7.6, 12.7, 14.2,4.127, 4.253, SURF_ID = 'Plasterboard'/
&OBST ID='STEP1', XB = 7.2, 7.4, 12.7, 14.2,4.253, 4.38, SURF_ID = 'Plasterboard'/
&OBST ID='STEP1', XB = 7.0, 7.2, 12.7, 14.2,4.38, 4.507, SURF_ID = 'Plasterboard'/
&OBST ID='STEP1', XB = 6.8, 7.0, 12.7, 14.2,4.507, 4.633, SURF_ID = 'Plasterboard'/
&OBST ID='STEP1', XB = 6.6, 6.8, 12.7, 14.2,4.633, 4.76, SURF_ID = 'Plasterboard'/
&OBST ID='STEP1', XB = 6.4, 6.6, 12.7, 14.2,4.76, 4.887, SURF_ID = 'Plasterboard'/
&OBST ID='STEP1', XB = 6.2, 6.4, 12.7, 14.2,4.887, 5.013, SURF_ID = 'Plasterboard'/
&OBST ID='STEP1', XB = 6.0, 6.2, 12.7, 14.2,5.013, 5.14, SURF_ID = 'Plasterboard'/
&OBST ID='STEP1', XB = 5.8, 6.0, 12.7, 14.2,5.14, 5.267, SURF_ID = 'Plasterboard'/
&OBST ID='STEP1', XB = 5.6, 5.8, 12.7, 14.2,5.267, 5.393, SURF_ID = 'Plasterboard'/
&OBST ID='STEP1', XB = 5.4, 5.6, 12.7, 14.2,5.393, 5.52, SURF_ID = 'Plasterboard'/
&OBST ID='STEP1', XB = 5.2, 5.4, 12.7, 14.2,5.52, 5.647, SURF_ID = 'Plasterboard'/
&OBST ID='STEP1', XB = 5.0, 5.2, 12.7, 14.2,5.647, 5.773, SURF_ID = 'Plasterboard'/
&OBST ID='STEP1', XB = 4.8, 5.0, 12.7, 14.2,5.773, 5.9, SURF_ID = 'Plasterboard'/
&OBST ID='STEP1', XB = 7.6, 7.8, 12.7, 14.2,7.8, 7.903, SURF_ID = 'Plasterboard'/
&OBST ID='STEP1', XB = 7.4, 7.6, 12.7, 14.2,7.903, 8.007, SURF_ID = 'Plasterboard'/
&OBST ID='STEP1', XB = 7.2, 7.4, 12.7, 14.2,8.007, 8.11, SURF_ID = 'Plasterboard'/
&OBST ID='STEP1', XB = 7.0, 7.2, 12.7, 14.2,8.11, 8.213, SURF_ID = 'Plasterboard'/
&OBST ID='STEP1', XB = 6.8, 7.0, 12.7, 14.2,8.213, 8.317, SURF_ID = 'Plasterboard'/
&OBST ID='STEP1', XB = 6.6, 6.8, 12.7, 14.2,8.317, 8.42, SURF_ID = 'Plasterboard'/
&OBST ID='STEP1', XB = 6.4, 6.6, 12.7, 14.2,8.42, 8.523, SURF_ID = 'Plasterboard'/
&OBST ID='STEP1', XB = 6.2, 6.4, 12.7, 14.2,8.523, 8.627, SURF_ID = 'Plasterboard'/
&OBST ID='STEP1', XB = 6.0, 6.2, 12.7, 14.2,8.627, 8.73, SURF_ID = 'Plasterboard'/
&OBST ID='STEP1', XB = 5.8, 6.0, 12.7, 14.2,8.73, 8.833, SURF_ID = 'Plasterboard'/
&OBST ID='STEP1', XB = 5.6, 5.8, 12.7, 14.2,8.833, 8.937, SURF_ID = 'Plasterboard'/
&OBST ID='STEP1', XB = 5.4, 5.6, 12.7, 14.2,8.937, 9.04, SURF_ID = 'Plasterboard'/
&OBST ID='STEP1', XB = 5.2, 5.4, 12.7, 14.2,9.04, 9.143, SURF_ID = 'Plasterboard'/
&OBST ID='STEP1', XB = 5.0, 5.2, 12.7, 14.2,9.143, 9.247, SURF_ID = 'Plasterboard'/
&OBST ID='STEP1', XB = 4.8, 5.0, 12.7, 14.2,9.247, 9.35, SURF_ID = 'Plasterboard'/
&OBST ID='STEP1', XB = 7.6, 7.8, 12.7, 14.2,10.9, 11.0, SURF_ID = 'Plasterboard'/
&OBST ID='STEP1', XB = 7.4, 7.6, 12.7, 14.2,11.0, 11.1, SURF_ID = 'Plasterboard'/
&OBST ID='STEP1', XB = 7.2, 7.4, 12.7, 14.2,11.1, 11.2, SURF_ID = 'Plasterboard'/
&OBST ID='STEP1', XB = 7.0, 7.2, 12.7, 14.2,11.2, 11.3, SURF_ID = 'Plasterboard'/
&OBST ID='STEP1', XB = 6.8, 7.0, 12.7, 14.2,11.3, 11.4, SURF_ID = 'Plasterboard'/
&OBST ID='STEP1', XB = 6.6, 6.8, 12.7, 14.2,11.4, 11.5, SURF_ID = 'Plasterboard'/
&OBST ID='STEP1', XB = 6.4, 6.6, 12.7, 14.2,11.5, 11.6, SURF_ID = 'Plasterboard'/
&OBST ID='STEP1', XB = 6.2, 6.4, 12.7, 14.2,11.6, 11.7, SURF_ID = 'Plasterboard'/
&OBST ID='STEP1', XB = 6.0, 6.2, 12.7, 14.2,11.7, 11.8, SURF_ID = 'Plasterboard'/
&OBST ID='STEP1', XB = 5.8, 6.0, 12.7, 14.2,11.8, 11.9, SURF_ID = 'Plasterboard'/
&OBST ID='STEP1', XB = 5.6, 5.8, 12.7, 14.2,11.9, 12.0, SURF_ID = 'Plasterboard'/
&OBST ID='STEP1', XB = 5.4, 5.6, 12.7, 14.2,12.0, 12.1, SURF_ID = 'Plasterboard'/
&OBST ID='STEP1', XB = 5.2, 5.4, 12.7, 14.2,12.1, 12.2, SURF_ID = 'Plasterboard'/
&OBST ID='STEP1', XB = 5.0, 5.2, 12.7, 14.2,12.2, 12.3, SURF_ID = 'Plasterboard'/
&OBST ID='STEP1', XB = 4.8, 5.0, 12.7, 14.2,12.3, 12.4, SURF_ID = 'Plasterboard'/
&OBST ID='STEP1', XB = 7.6, 7.8, 12.7, 14.2,13.9, 14.0, SURF_ID = 'Plasterboard'/
&OBST ID='STEP1', XB = 7.4, 7.6, 12.7, 14.2,14.0, 14.1, SURF_ID = 'Plasterboard'/
&OBST ID='STEP1', XB = 7.2, 7.4, 12.7, 14.2,14.1, 14.2, SURF_ID = 'Plasterboard'/
&OBST ID='STEP1', XB = 7.0, 7.2, 12.7, 14.2,14.2, 14.3, SURF_ID = 'Plasterboard'/
&OBST ID='STEP1', XB = 6.8, 7.0, 12.7, 14.2,14.3, 14.4, SURF_ID = 'Plasterboard'/
&OBST ID='STEP1', XB = 6.6, 6.8, 12.7, 14.2,14.4, 14.5, SURF_ID = 'Plasterboard'/
&OBST ID='STEP1', XB = 6.4, 6.6, 12.7, 14.2,14.5, 14.6, SURF_ID = 'Plasterboard'/
&OBST ID='STEP1', XB = 6.2, 6.4, 12.7, 14.2,14.6, 14.7, SURF_ID = 'Plasterboard'/
&OBST ID='STEP1', XB = 6.0, 6.2, 12.7, 14.2,14.7, 14.8, SURF_ID = 'Plasterboard'/
&OBST ID='STEP1', XB = 5.8, 6.0, 12.7, 14.2,14.8, 14.9, SURF_ID = 'Plasterboard'/
&OBST ID='STEP1', XB = 5.6, 5.8, 12.7, 14.2,14.9, 15.0, SURF_ID = 'Plasterboard'/
&OBST ID='STEP1', XB = 5.4, 5.6, 12.7, 14.2,15.0, 15.1, SURF_ID = 'Plasterboard'/
&OBST ID='STEP1', XB = 5.2, 5.4, 12.7, 14.2,15.1, 15.2, SURF_ID = 'Plasterboard'/
&OBST ID='STEP1', XB = 5.0, 5.2, 12.7, 14.2,15.2, 15.3, SURF_ID = 'Plasterboard'/
&OBST ID='STEP1', XB = 4.8, 5.0, 12.7, 14.2,15.3, 15.4, SURF_ID = 'Plasterboard'/
&OBST ID='STEP1', XB = 7.6, 7.8, 12.7, 14.2,16.9, 17.0, SURF_ID = 'Plasterboard'/
&OBST ID='STEP1', XB = 7.4, 7.6, 12.7, 14.2,17.0, 17.1, SURF_ID = 'Plasterboard'/
&OBST ID='STEP1', XB = 7.2, 7.4, 12.7, 14.2,17.1, 17.2, SURF_ID = 'Plasterboard'/
&OBST ID='STEP1', XB = 7.0, 7.2, 12.7, 14.2,17.2, 17.3, SURF_ID = 'Plasterboard'/
&OBST ID='STEP1', XB = 6.8, 7.0, 12.7, 14.2,17.3, 17.4, SURF_ID = 'Plasterboard'/
&OBST ID='STEP1', XB = 6.6, 6.8, 12.7, 14.2,17.4, 17.5, SURF_ID = 'Plasterboard'/
&OBST ID='STEP1', XB = 6.4, 6.6, 12.7, 14.2,17.5, 17.6, SURF_ID = 'Plasterboard'/
&OBST ID='STEP1', XB = 6.2, 6.4, 12.7, 14.2,17.6, 17.7, SURF_ID = 'Plasterboard'/
&OBST ID='STEP1', XB = 6.0, 6.2, 12.7, 14.2,17.7, 17.8, SURF_ID = 'Plasterboard'/
&OBST ID='STEP1', XB = 5.8, 6.0, 12.7, 14.2,17.8, 17.9, SURF_ID = 'Plasterboard'/
&OBST ID='STEP1', XB = 5.6, 5.8, 12.7, 14.2,17.9, 18.0, SURF_ID = 'Plasterboard'/
&OBST ID='STEP1', XB = 5.4, 5.6, 12.7, 14.2,18.0, 18.1, SURF_ID = 'Plasterboard'/
&OBST ID='STEP1', XB = 5.2, 5.4, 12.7, 14.2,18.1, 18.2, SURF_ID = 'Plasterboard'/
&OBST ID='STEP1', XB = 5.0, 5.2, 12.7, 14.2,18.2, 18.3, SURF_ID = 'Plasterboard'/
&OBST ID='STEP1', XB = 4.8, 5.0, 12.7, 14.2,18.3, 18.4, SURF_ID = 'Plasterboard'/
&OBST ID='STEP1', XB = 7.6, 7.8, 12.7, 14.2,19.9, 20.0, SURF_ID = 'Plasterboard'/
&OBST ID='STEP1', XB = 7.4, 7.6, 12.7, 14.2,20.0, 20.1, SURF_ID = 'Plasterboard'/
&OBST ID='STEP1', XB = 7.2, 7.4, 12.7, 14.2,20.1, 20.2, SURF_ID = 'Plasterboard'/
&OBST ID='STEP1', XB = 7.0, 7.2, 12.7, 14.2,20.2, 20.3, SURF_ID = 'Plasterboard'/
&OBST ID='STEP1', XB = 6.8, 7.0, 12.7, 14.2,20.3, 20.4, SURF_ID = 'Plasterboard'/
&OBST ID='STEP1', XB = 6.6, 6.8, 12.7, 14.2,20.4, 20.5, SURF_ID = 'Plasterboard'/
&OBST ID='STEP1', XB = 6.4, 6.6, 12.7, 14.2,20.5, 20.6, SURF_ID = 'Plasterboard'/
&OBST ID='STEP1', XB = 6.2, 6.4, 12.7, 14.2,20.6, 20.7, SURF_ID = 'Plasterboard'/
&OBST ID='STEP1', XB = 6.0, 6.2, 12.7, 14.2,20.7, 20.8, SURF_ID = 'Plasterboard'/
&OBST ID='STEP1', XB = 5.8, 6.0, 12.7, 14.2,20.8, 20.9, SURF_ID = 'Plasterboard'/
&OBST ID='STEP1', XB = 5.6, 5.8, 12.7, 14.2,20.9, 21.0, SURF_ID = 'Plasterboard'/
&OBST ID='STEP1', XB = 5.4, 5.6, 12.7, 14.2,21.0, 21.1, SURF_ID = 'Plasterboard'/
&OBST ID='STEP1', XB = 5.2, 5.4, 12.7, 14.2,21.1, 21.2, SURF_ID = 'Plasterboard'/
&OBST ID='STEP1', XB = 5.0, 5.2, 12.7, 14.2,21.2, 21.3, SURF_ID = 'Plasterboard'/
&OBST ID='STEP1', XB = 4.8, 5.0, 12.7, 14.2,21.3, 21.4, SURF_ID = 'Plasterboard'/
&OBST ID='STEP1', XB = 7.6, 7.8, 12.7, 14.2,22.9, 23.0, SURF_ID = 'Plasterboard'/
&OBST ID='STEP1', XB = 7.4, 7.6, 12.7, 14.2,23.0, 23.1, SURF_ID = 'Plasterboard'/
&OBST ID='STEP1', XB = 7.2, 7.4, 12.7, 14.2,23.1, 23.2, SURF_ID = 'Plasterboard'/
&OBST ID='STEP1', XB = 7.0, 7.2, 12.7, 14.2,23.2, 23.3, SURF_ID = 'Plasterboard'/
&OBST ID='STEP1', XB = 6.8, 7.0, 12.7, 14.2,23.3, 23.4, SURF_ID = 'Plasterboard'/
&OBST ID='STEP1', XB = 6.6, 6.8, 12.7, 14.2,23.4, 23.5, SURF_ID = 'Plasterboard'/
&OBST ID='STEP1', XB = 6.4, 6.6, 12.7, 14.2,23.5, 23.6, SURF_ID = 'Plasterboard'/
&OBST ID='STEP1', XB = 6.2, 6.4, 12.7, 14.2,23.6, 23.7, SURF_ID = 'Plasterboard'/
&OBST ID='STEP1', XB = 6.0, 6.2, 12.7, 14.2,23.7, 23.8, SURF_ID = 'Plasterboard'/
&OBST ID='STEP1', XB = 5.8, 6.0, 12.7, 14.2,23.8, 23.9, SURF_ID = 'Plasterboard'/
&OBST ID='STEP1', XB = 5.6, 5.8, 12.7, 14.2,23.9, 24.0, SURF_ID = 'Plasterboard'/
&OBST ID='STEP1', XB = 5.4, 5.6, 12.7, 14.2,24.0, 24.1, SURF_ID = 'Plasterboard'/
&OBST ID='STEP1', XB = 5.2, 5.4, 12.7, 14.2,24.1, 24.2, SURF_ID = 'Plasterboard'/
&OBST ID='STEP1', XB = 5.0, 5.2, 12.7, 14.2,24.2, 24.3, SURF_ID = 'Plasterboard'/
&OBST ID='STEP1', XB = 4.8, 5.0, 12.7, 14.2,24.3, 24.4, SURF_ID = 'Plasterboard'/
&OBST ID='STEP1', XB = 7.6, 7.8, 12.7, 14.2,25.9, 26.0, SURF_ID = 'Plasterboard'/
&OBST ID='STEP1', XB = 7.4, 7.6, 12.7, 14.2,26.0, 26.1, SURF_ID = 'Plasterboard'/
&OBST ID='STEP1', XB = 7.2, 7.4, 12.7, 14.2,26.1, 26.2, SURF_ID = 'Plasterboard'/
&OBST ID='STEP1', XB = 7.0, 7.2, 12.7, 14.2,26.2, 26.3, SURF_ID = 'Plasterboard'/
&OBST ID='STEP1', XB = 6.8, 7.0, 12.7, 14.2,26.3, 26.4, SURF_ID = 'Plasterboard'/
&OBST ID='STEP1', XB = 6.6, 6.8, 12.7, 14.2,26.4, 26.5, SURF_ID = 'Plasterboard'/
&OBST ID='STEP1', XB = 6.4, 6.6, 12.7, 14.2,26.5, 26.6, SURF_ID = 'Plasterboard'/
&OBST ID='STEP1', XB = 6.2, 6.4, 12.7, 14.2,26.6, 26.7, SURF_ID = 'Plasterboard'/
&OBST ID='STEP1', XB = 6.0, 6.2, 12.7, 14.2,26.7, 26.8, SURF_ID = 'Plasterboard'/
&OBST ID='STEP1', XB = 5.8, 6.0, 12.7, 14.2,26.8, 26.9, SURF_ID = 'Plasterboard'/
&OBST ID='STEP1', XB = 5.6, 5.8, 12.7, 14.2,26.9, 27.0, SURF_ID = 'Plasterboard'/
&OBST ID='STEP1', XB = 5.4, 5.6, 12.7, 14.2,27.0, 27.1, SURF_ID = 'Plasterboard'/
&OBST ID='STEP1', XB = 5.2, 5.4, 12.7, 14.2,27.1, 27.2, SURF_ID = 'Plasterboard'/
&OBST ID='STEP1', XB = 5.0, 5.2, 12.7, 14.2,27.2, 27.3, SURF_ID = 'Plasterboard'/
&OBST ID='STEP1', XB = 4.8, 5.0, 12.7, 14.2,27.3, 27.4, SURF_ID = 'Plasterboard'/
&OBST ID='STEP1', XB = 7.6, 7.8, 12.7, 14.2,28.9, 29.0, SURF_ID = 'Plasterboard'/
&OBST ID='STEP1', XB = 7.4, 7.6, 12.7, 14.2,29.0, 29.1, SURF_ID = 'Plasterboard'/
&OBST ID='STEP1', XB = 7.2, 7.4, 12.7, 14.2,29.1, 29.2, SURF_ID = 'Plasterboard'/
&OBST ID='STEP1', XB = 7.0, 7.2, 12.7, 14.2,29.2, 29.3, SURF_ID = 'Plasterboard'/
&OBST ID='STEP1', XB = 6.8, 7.0, 12.7, 14.2,29.3, 29.4, SURF_ID = 'Plasterboard'/
&OBST ID='STEP1', XB = 6.6, 6.8, 12.7, 14.2,29.4, 29.5, SURF_ID = 'Plasterboard'/
&OBST ID='STEP1', XB = 6.4, 6.6, 12.7, 14.2,29.5, 29.6, SURF_ID = 'Plasterboard'/
&OBST ID='STEP1', XB = 6.2, 6.4, 12.7, 14.2,29.6, 29.7, SURF_ID = 'Plasterboard'/
&OBST ID='STEP1', XB = 6.0, 6.2, 12.7, 14.2,29.7, 29.8, SURF_ID = 'Plasterboard'/
&OBST ID='STEP1', XB = 5.8, 6.0, 12.7, 14.2,29.8, 29.9, SURF_ID = 'Plasterboard'/
&OBST ID='STEP1', XB = 5.6, 5.8, 12.7, 14.2,29.9, 30.0, SURF_ID = 'Plasterboard'/
&OBST ID='STEP1', XB = 5.4, 5.6, 12.7, 14.2,30.0, 30.1, SURF_ID = 'Plasterboard'/
&OBST ID='STEP1', XB = 5.2, 5.4, 12.7, 14.2,30.1, 30.2, SURF_ID = 'Plasterboard'/
&OBST ID='STEP1', XB = 5.0, 5.2, 12.7, 14.2,30.2, 30.3, SURF_ID = 'Plasterboard'/
&OBST ID='STEP1', XB = 4.8, 5.0, 12.7, 14.2,30.3, 30.4, SURF_ID = 'Plasterboard'/
&OBST ID='STEP2', XB = 4.8, 5.0, 11.2, 12.7,5.9, 6.027, SURF_ID = 'Plasterboard'/
&OBST ID='STEP2', XB = 5.0, 5.2, 11.2, 12.7,6.027, 6.153, SURF_ID = 'Plasterboard'/
&OBST ID='STEP2', XB = 5.2, 5.4, 11.2, 12.7,6.153, 6.28, SURF_ID = 'Plasterboard'/
&OBST ID='STEP2', XB = 5.4, 5.6, 11.2, 12.7,6.28, 6.407, SURF_ID = 'Plasterboard'/
&OBST ID='STEP2', XB = 5.6, 5.8, 11.2, 12.7,6.407, 6.533, SURF_ID = 'Plasterboard'/
&OBST ID='STEP2', XB = 5.8, 6.0, 11.2, 12.7,6.533, 6.66, SURF_ID = 'Plasterboard'/
&OBST ID='STEP2', XB = 6.0, 6.2, 11.2, 12.7,6.66, 6.787, SURF_ID = 'Plasterboard'/
&OBST ID='STEP2', XB = 6.2, 6.4, 11.2, 12.7,6.787, 6.913, SURF_ID = 'Plasterboard'/
&OBST ID='STEP2', XB = 6.4, 6.6, 11.2, 12.7,6.913, 7.04, SURF_ID = 'Plasterboard'/
&OBST ID='STEP2', XB = 6.6, 6.8, 11.2, 12.7,7.04, 7.167, SURF_ID = 'Plasterboard'/
&OBST ID='STEP2', XB = 6.8, 7.0, 11.2, 12.7,7.167, 7.293, SURF_ID = 'Plasterboard'/
&OBST ID='STEP2', XB = 7.0, 7.2, 11.2, 12.7,7.293, 7.42, SURF_ID = 'Plasterboard'/
&OBST ID='STEP2', XB = 7.2, 7.4, 11.2, 12.7,7.42, 7.547, SURF_ID = 'Plasterboard'/
&OBST ID='STEP2', XB = 7.4, 7.6, 11.2, 12.7,7.547, 7.673, SURF_ID = 'Plasterboard'/
&OBST ID='STEP2', XB = 7.6, 7.8, 11.2, 12.7,7.673, 7.8, SURF_ID = 'Plasterboard'/
&OBST ID='STEP2', XB = 4.8, 5.0, 11.2, 12.7,9.35, 9.453, SURF_ID = 'Plasterboard'/
&OBST ID='STEP2', XB = 5.0, 5.2, 11.2, 12.7,9.453, 9.557, SURF_ID = 'Plasterboard'/
&OBST ID='STEP2', XB = 5.2, 5.4, 11.2, 12.7,9.557, 9.66, SURF_ID = 'Plasterboard'/
&OBST ID='STEP2', XB = 5.4, 5.6, 11.2, 12.7,9.66, 9.763, SURF_ID = 'Plasterboard'/
&OBST ID='STEP2', XB = 5.6, 5.8, 11.2, 12.7,9.763, 9.867, SURF_ID = 'Plasterboard'/
&OBST ID='STEP2', XB = 5.8, 6.0, 11.2, 12.7,9.867, 9.97, SURF_ID = 'Plasterboard'/
&OBST ID='STEP2', XB = 6.0, 6.2, 11.2, 12.7,9.97, 10.073, SURF_ID = 'Plasterboard'/
&OBST ID='STEP2', XB = 6.2, 6.4, 11.2, 12.7,10.073, 10.177, SURF_ID = 'Plasterboard'/
&OBST ID='STEP2', XB = 6.4, 6.6, 11.2, 12.7,10.177, 10.28, SURF_ID = 'Plasterboard'/
&OBST ID='STEP2', XB = 6.6, 6.8, 11.2, 12.7,10.28, 10.383, SURF_ID = 'Plasterboard'/
&OBST ID='STEP2', XB = 6.8, 7.0, 11.2, 12.7,10.383, 10.487, SURF_ID = 'Plasterboard'/
&OBST ID='STEP2', XB = 7.0, 7.2, 11.2, 12.7,10.487, 10.59, SURF_ID = 'Plasterboard'/
&OBST ID='STEP2', XB = 7.2, 7.4, 11.2, 12.7,10.59, 10.693, SURF_ID = 'Plasterboard'/
&OBST ID='STEP2', XB = 7.4, 7.6, 11.2, 12.7,10.693, 10.797, SURF_ID = 'Plasterboard'/
&OBST ID='STEP2', XB = 7.6, 7.8, 11.2, 12.7,10.797, 10.9, SURF_ID = 'Plasterboard'/
&OBST ID='STEP2', XB = 4.8, 5.0, 11.2, 12.7,12.4, 12.5, SURF_ID = 'Plasterboard'/
&OBST ID='STEP2', XB = 5.0, 5.2, 11.2, 12.7,12.5, 12.6, SURF_ID = 'Plasterboard'/
&OBST ID='STEP2', XB = 5.2, 5.4, 11.2, 12.7,12.6, 12.7, SURF_ID = 'Plasterboard'/
&OBST ID='STEP2', XB = 5.4, 5.6, 11.2, 12.7,12.7, 12.8, SURF_ID = 'Plasterboard'/
&OBST ID='STEP2', XB = 5.6, 5.8, 11.2, 12.7,12.8, 12.9, SURF_ID = 'Plasterboard'/
&OBST ID='STEP2', XB = 5.8, 6.0, 11.2, 12.7,12.9, 13.0, SURF_ID = 'Plasterboard'/
&OBST ID='STEP2', XB = 6.0, 6.2, 11.2, 12.7,13.0, 13.1, SURF_ID = 'Plasterboard'/
&OBST ID='STEP2', XB = 6.2, 6.4, 11.2, 12.7,13.1, 13.2, SURF_ID = 'Plasterboard'/
&OBST ID='STEP2', XB = 6.4, 6.6, 11.2, 12.7,13.2, 13.3, SURF_ID = 'Plasterboard'/
&OBST ID='STEP2', XB = 6.6, 6.8, 11.2, 12.7,13.3, 13.4, SURF_ID = 'Plasterboard'/
&OBST ID='STEP2', XB = 6.8, 7.0, 11.2, 12.7,13.4, 13.5, SURF_ID = 'Plasterboard'/
&OBST ID='STEP2', XB = 7.0, 7.2, 11.2, 12.7,13.5, 13.6, SURF_ID = 'Plasterboard'/
&OBST ID='STEP2', XB = 7.2, 7.4, 11.2, 12.7,13.6, 13.7, SURF_ID = 'Plasterboard'/
&OBST ID='STEP2', XB = 7.4, 7.6, 11.2, 12.7,13.7, 13.8, SURF_ID = 'Plasterboard'/
&OBST ID='STEP2', XB = 7.6, 7.8, 11.2, 12.7,13.8, 13.9, SURF_ID = 'Plasterboard'/
&OBST ID='STEP2', XB = 4.8, 5.0, 11.2, 12.7,15.4, 15.5, SURF_ID = 'Plasterboard'/
&OBST ID='STEP2', XB = 5.0, 5.2, 11.2, 12.7,15.5, 15.6, SURF_ID = 'Plasterboard'/
&OBST ID='STEP2', XB = 5.2, 5.4, 11.2, 12.7,15.6, 15.7, SURF_ID = 'Plasterboard'/
&OBST ID='STEP2', XB = 5.4, 5.6, 11.2, 12.7,15.7, 15.8, SURF_ID = 'Plasterboard'/
&OBST ID='STEP2', XB = 5.6, 5.8, 11.2, 12.7,15.8, 15.9, SURF_ID = 'Plasterboard'/
&OBST ID='STEP2', XB = 5.8, 6.0, 11.2, 12.7,15.9, 16.0, SURF_ID = 'Plasterboard'/
&OBST ID='STEP2', XB = 6.0, 6.2, 11.2, 12.7,16.0, 16.1, SURF_ID = 'Plasterboard'/
&OBST ID='STEP2', XB = 6.2, 6.4, 11.2, 12.7,16.1, 16.2, SURF_ID = 'Plasterboard'/
&OBST ID='STEP2', XB = 6.4, 6.6, 11.2, 12.7,16.2, 16.3, SURF_ID = 'Plasterboard'/
&OBST ID='STEP2', XB = 6.6, 6.8, 11.2, 12.7,16.3, 16.4, SURF_ID = 'Plasterboard'/
&OBST ID='STEP2', XB = 6.8, 7.0, 11.2, 12.7,16.4, 16.5, SURF_ID = 'Plasterboard'/
&OBST ID='STEP2', XB = 7.0, 7.2, 11.2, 12.7,16.5, 16.6, SURF_ID = 'Plasterboard'/
&OBST ID='STEP2', XB = 7.2, 7.4, 11.2, 12.7,16.6, 16.7, SURF_ID = 'Plasterboard'/
&OBST ID='STEP2', XB = 7.4, 7.6, 11.2, 12.7,16.7, 16.8, SURF_ID = 'Plasterboard'/
&OBST ID='STEP2', XB = 7.6, 7.8, 11.2, 12.7,16.8, 16.9, SURF_ID = 'Plasterboard'/
&OBST ID='STEP2', XB = 4.8, 5.0, 11.2, 12.7,18.4, 18.5, SURF_ID = 'Plasterboard'/
&OBST ID='STEP2', XB = 5.0, 5.2, 11.2, 12.7,18.5, 18.6, SURF_ID = 'Plasterboard'/
&OBST ID='STEP2', XB = 5.2, 5.4, 11.2, 12.7,18.6, 18.7, SURF_ID = 'Plasterboard'/
&OBST ID='STEP2', XB = 5.4, 5.6, 11.2, 12.7,18.7, 18.8, SURF_ID = 'Plasterboard'/
&OBST ID='STEP2', XB = 5.6, 5.8, 11.2, 12.7,18.8, 18.9, SURF_ID = 'Plasterboard'/
&OBST ID='STEP2', XB = 5.8, 6.0, 11.2, 12.7,18.9, 19.0, SURF_ID = 'Plasterboard'/
&OBST ID='STEP2', XB = 6.0, 6.2, 11.2, 12.7,19.0, 19.1, SURF_ID = 'Plasterboard'/
&OBST ID='STEP2', XB = 6.2, 6.4, 11.2, 12.7,19.1, 19.2, SURF_ID = 'Plasterboard'/
&OBST ID='STEP2', XB = 6.4, 6.6, 11.2, 12.7,19.2, 19.3, SURF_ID = 'Plasterboard'/
&OBST ID='STEP2', XB = 6.6, 6.8, 11.2, 12.7,19.3, 19.4, SURF_ID = 'Plasterboard'/
&OBST ID='STEP2', XB = 6.8, 7.0, 11.2, 12.7,19.4, 19.5, SURF_ID = 'Plasterboard'/
&OBST ID='STEP2', XB = 7.0, 7.2, 11.2, 12.7,19.5, 19.6, SURF_ID = 'Plasterboard'/
&OBST ID='STEP2', XB = 7.2, 7.4, 11.2, 12.7,19.6, 19.7, SURF_ID = 'Plasterboard'/
&OBST ID='STEP2', XB = 7.4, 7.6, 11.2, 12.7,19.7, 19.8, SURF_ID = 'Plasterboard'/
&OBST ID='STEP2', XB = 7.6, 7.8, 11.2, 12.7,19.8, 19.9, SURF_ID = 'Plasterboard'/
&OBST ID='STEP2', XB = 4.8, 5.0, 11.2, 12.7,21.4, 21.5, SURF_ID = 'Plasterboard'/
&OBST ID='STEP2', XB = 5.0, 5.2, 11.2, 12.7,21.5, 21.6, SURF_ID = 'Plasterboard'/
&OBST ID='STEP2', XB = 5.2, 5.4, 11.2, 12.7,21.6, 21.7, SURF_ID = 'Plasterboard'/
&OBST ID='STEP2', XB = 5.4, 5.6, 11.2, 12.7,21.7, 21.8, SURF_ID = 'Plasterboard'/
&OBST ID='STEP2', XB = 5.6, 5.8, 11.2, 12.7,21.8, 21.9, SURF_ID = 'Plasterboard'/
&OBST ID='STEP2', XB = 5.8, 6.0, 11.2, 12.7,21.9, 22.0, SURF_ID = 'Plasterboard'/
&OBST ID='STEP2', XB = 6.0, 6.2, 11.2, 12.7,22.0, 22.1, SURF_ID = 'Plasterboard'/
&OBST ID='STEP2', XB = 6.2, 6.4, 11.2, 12.7,22.1, 22.2, SURF_ID = 'Plasterboard'/
&OBST ID='STEP2', XB = 6.4, 6.6, 11.2, 12.7,22.2, 22.3, SURF_ID = 'Plasterboard'/
&OBST ID='STEP2', XB = 6.6, 6.8, 11.2, 12.7,22.3, 22.4, SURF_ID = 'Plasterboard'/
&OBST ID='STEP2', XB = 6.8, 7.0, 11.2, 12.7,22.4, 22.5, SURF_ID = 'Plasterboard'/
&OBST ID='STEP2', XB = 7.0, 7.2, 11.2, 12.7,22.5, 22.6, SURF_ID = 'Plasterboard'/
&OBST ID='STEP2', XB = 7.2, 7.4, 11.2, 12.7,22.6, 22.7, SURF_ID = 'Plasterboard'/
&OBST ID='STEP2', XB = 7.4, 7.6, 11.2, 12.7,22.7, 22.8, SURF_ID = 'Plasterboard'/
&OBST ID='STEP2', XB = 7.6, 7.8, 11.2, 12.7,22.8, 22.9, SURF_ID = 'Plasterboard'/
&OBST ID='STEP2', XB = 4.8, 5.0, 11.2, 12.7,24.4, 24.5, SURF_ID = 'Plasterboard'/
&OBST ID='STEP2', XB = 5.0, 5.2, 11.2, 12.7,24.5, 24.6, SURF_ID = 'Plasterboard'/
&OBST ID='STEP2', XB = 5.2, 5.4, 11.2, 12.7,24.6, 24.7, SURF_ID = 'Plasterboard'/
&OBST ID='STEP2', XB = 5.4, 5.6, 11.2, 12.7,24.7, 24.8, SURF_ID = 'Plasterboard'/
&OBST ID='STEP2', XB = 5.6, 5.8, 11.2, 12.7,24.8, 24.9, SURF_ID = 'Plasterboard'/
&OBST ID='STEP2', XB = 5.8, 6.0, 11.2, 12.7,24.9, 25.0, SURF_ID = 'Plasterboard'/
&OBST ID='STEP2', XB = 6.0, 6.2, 11.2, 12.7,25.0, 25.1, SURF_ID = 'Plasterboard'/
&OBST ID='STEP2', XB = 6.2, 6.4, 11.2, 12.7,25.1, 25.2, SURF_ID = 'Plasterboard'/
&OBST ID='STEP2', XB = 6.4, 6.6, 11.2, 12.7,25.2, 25.3, SURF_ID = 'Plasterboard'/
&OBST ID='STEP2', XB = 6.6, 6.8, 11.2, 12.7,25.3, 25.4, SURF_ID = 'Plasterboard'/
&OBST ID='STEP2', XB = 6.8, 7.0, 11.2, 12.7,25.4, 25.5, SURF_ID = 'Plasterboard'/
&OBST ID='STEP2', XB = 7.0, 7.2, 11.2, 12.7,25.5, 25.6, SURF_ID = 'Plasterboard'/
&OBST ID='STEP2', XB = 7.2, 7.4, 11.2, 12.7,25.6, 25.7, SURF_ID = 'Plasterboard'/
&OBST ID='STEP2', XB = 7.4, 7.6, 11.2, 12.7,25.7, 25.8, SURF_ID = 'Plasterboard'/
&OBST ID='STEP2', XB = 7.6, 7.8, 11.2, 12.7,25.8, 25.9, SURF_ID = 'Plasterboard'/
&OBST ID='STEP2', XB = 4.8, 5.0, 11.2, 12.7,27.4, 27.5, SURF_ID = 'Plasterboard'/
&OBST ID='STEP2', XB = 5.0, 5.2, 11.2, 12.7,27.5, 27.6, SURF_ID = 'Plasterboard'/
&OBST ID='STEP2', XB = 5.2, 5.4, 11.2, 12.7,27.6, 27.7, SURF_ID = 'Plasterboard'/
&OBST ID='STEP2', XB = 5.4, 5.6, 11.2, 12.7,27.7, 27.8, SURF_ID = 'Plasterboard'/
&OBST ID='STEP2', XB = 5.6, 5.8, 11.2, 12.7,27.8, 27.9, SURF_ID = 'Plasterboard'/
&OBST ID='STEP2', XB = 5.8, 6.0, 11.2, 12.7,27.9, 28.0, SURF_ID = 'Plasterboard'/
&OBST ID='STEP2', XB = 6.0, 6.2, 11.2, 12.7,28.0, 28.1, SURF_ID = 'Plasterboard'/
&OBST ID='STEP2', XB = 6.2, 6.4, 11.2, 12.7,28.1, 28.2, SURF_ID = 'Plasterboard'/
&OBST ID='STEP2', XB = 6.4, 6.6, 11.2, 12.7,28.2, 28.3, SURF_ID = 'Plasterboard'/
&OBST ID='STEP2', XB = 6.6, 6.8, 11.2, 12.7,28.3, 28.4, SURF_ID = 'Plasterboard'/
&OBST ID='STEP2', XB = 6.8, 7.0, 11.2, 12.7,28.4, 28.5, SURF_ID = 'Plasterboard'/
&OBST ID='STEP2', XB = 7.0, 7.2, 11.2, 12.7,28.5, 28.6, SURF_ID = 'Plasterboard'/
&OBST ID='STEP2', XB = 7.2, 7.4, 11.2, 12.7,28.6, 28.7, SURF_ID = 'Plasterboard'/
&OBST ID='STEP2', XB = 7.4, 7.6, 11.2, 12.7,28.7, 28.8, SURF_ID = 'Plasterboard'/
&OBST ID='STEP2', XB = 7.6, 7.8, 11.2, 12.7,28.8, 28.9, SURF_ID = 'Plasterboard'/
&OBST ID='STEP2', XB = 4.8, 5.0, 11.2, 12.7,30.4, 30.5, SURF_ID = 'Plasterboard'/
&OBST ID='STEP2', XB = 5.0, 5.2, 11.2, 12.7,30.5, 30.6, SURF_ID = 'Plasterboard'/
&OBST ID='STEP2', XB = 5.2, 5.4, 11.2, 12.7,30.6, 30.7, SURF_ID = 'Plasterboard'/
&OBST ID='STEP2', XB = 5.4, 5.6, 11.2, 12.7,30.7, 30.8, SURF_ID = 'Plasterboard'/
&OBST ID='STEP2', XB = 5.6, 5.8, 11.2, 12.7,30.8, 30.9, SURF_ID = 'Plasterboard'/
&OBST ID='STEP2', XB = 5.8, 6.0, 11.2, 12.7,30.9, 31.0, SURF_ID = 'Plasterboard'/
&OBST ID='STEP2', XB = 6.0, 6.2, 11.2, 12.7,31.0, 31.1, SURF_ID = 'Plasterboard'/
&OBST ID='STEP2', XB = 6.2, 6.4, 11.2, 12.7,31.1, 31.2, SURF_ID = 'Plasterboard'/
&OBST ID='STEP2', XB = 6.4, 6.6, 11.2, 12.7,31.2, 31.3, SURF_ID = 'Plasterboard'/
&OBST ID='STEP2', XB = 6.6, 6.8, 11.2, 12.7,31.3, 31.4, SURF_ID = 'Plasterboard'/
&OBST ID='STEP2', XB = 6.8, 7.0, 11.2, 12.7,31.4, 31.5, SURF_ID = 'Plasterboard'/
&OBST ID='STEP2', XB = 7.0, 7.2, 11.2, 12.7,31.5, 31.6, SURF_ID = 'Plasterboard'/
&OBST ID='STEP2', XB = 7.2, 7.4, 11.2, 12.7,31.6, 31.7, SURF_ID = 'Plasterboard'/
&OBST ID='STEP2', XB = 7.4, 7.6, 11.2, 12.7,31.7, 31.8, SURF_ID = 'Plasterboard'/
&OBST ID='STEP2', XB = 7.6, 7.8, 11.2, 12.7,31.8, 31.9, SURF_ID = 'Plasterboard'/
&OBST ID='LANDING', XB = 7.800000000000001, 9.8, 11.2, 14.200000000000001,7.8, 8.0, SURF_ID = 'Plasterboard'/
&OBST ID='ADDITIONAL LANDING', XB = 7.4, 11.0, 9.200000000000001, 11.4,7.8, 8.0, SURF_ID = 'Plasterboard'/
&OBST ID='LANDING', XB = 7.800000000000001, 9.8, 11.2, 14.200000000000001,10.9, 11.1, SURF_ID = 'Plasterboard'/
&OBST ID='ADDITIONAL LANDING', XB = 7.4, 11.0, 9.200000000000001, 11.4,10.9, 11.1, SURF_ID = 'Plasterboard'/
&OBST ID='LANDING', XB = 7.800000000000001, 9.8, 11.2, 14.200000000000001,13.9, 14.1, SURF_ID = 'Plasterboard'/
&OBST ID='ADDITIONAL LANDING', XB = 7.4, 11.0, 9.200000000000001, 11.4,13.9, 14.1, SURF_ID = 'Plasterboard'/
&OBST ID='LANDING', XB = 7.800000000000001, 9.8, 11.2, 14.200000000000001,16.9, 17.099999999999998, SURF_ID = 'Plasterboard'/
&OBST ID='ADDITIONAL LANDING', XB = 7.4, 11.0, 9.200000000000001, 11.4,16.9, 17.099999999999998, SURF_ID = 'Plasterboard'/
&OBST ID='LANDING', XB = 7.800000000000001, 9.8, 11.2, 14.200000000000001,19.9, 20.099999999999998, SURF_ID = 'Plasterboard'/
&OBST ID='ADDITIONAL LANDING', XB = 7.4, 11.0, 9.200000000000001, 11.4,19.9, 20.099999999999998, SURF_ID = 'Plasterboard'/
&OBST ID='LANDING', XB = 7.800000000000001, 9.8, 11.2, 14.200000000000001,22.9, 23.099999999999998, SURF_ID = 'Plasterboard'/
&OBST ID='ADDITIONAL LANDING', XB = 7.4, 11.0, 9.200000000000001, 11.4,22.9, 23.099999999999998, SURF_ID = 'Plasterboard'/
&OBST ID='LANDING', XB = 7.800000000000001, 9.8, 11.2, 14.200000000000001,25.9, 26.099999999999998, SURF_ID = 'Plasterboard'/
&OBST ID='ADDITIONAL LANDING', XB = 7.4, 11.0, 9.200000000000001, 11.4,25.9, 26.099999999999998, SURF_ID = 'Plasterboard'/
&OBST ID='LANDING', XB = 7.800000000000001, 9.8, 11.2, 14.200000000000001,28.9, 29.099999999999998, SURF_ID = 'Plasterboard'/
&OBST ID='ADDITIONAL LANDING', XB = 7.4, 11.0, 9.200000000000001, 11.4,28.9, 29.099999999999998, SURF_ID = 'Plasterboard'/
&OBST ID='LANDING', XB = 7.800000000000001, 9.8, 11.2, 14.200000000000001,31.9, 32.1, SURF_ID = 'Plasterboard'/
&OBST ID='ADDITIONAL LANDING', XB = 7.4, 11.0, 9.200000000000001, 11.4,31.9, 32.1, SURF_ID = 'Plasterboard'/
&OBST ID='HALF LANDING', XB = 3.6, 4.800000000000001, 11.2, 14.200000000000001,5.9, 6.1000000000000005, SURF_ID = 'Plasterboard'/
&OBST ID='HALF LANDING', XB = 3.6, 4.800000000000001, 11.2, 14.200000000000001,9.35, 9.549999999999999, SURF_ID = 'Plasterboard'/
&OBST ID='HALF LANDING', XB = 3.6, 4.800000000000001, 11.2, 14.200000000000001,12.4, 12.6, SURF_ID = 'Plasterboard'/
&OBST ID='HALF LANDING', XB = 3.6, 4.800000000000001, 11.2, 14.200000000000001,15.4, 15.6, SURF_ID = 'Plasterboard'/
&OBST ID='HALF LANDING', XB = 3.6, 4.800000000000001, 11.2, 14.200000000000001,18.4, 18.599999999999998, SURF_ID = 'Plasterboard'/
&OBST ID='HALF LANDING', XB = 3.6, 4.800000000000001, 11.2, 14.200000000000001,21.4, 21.599999999999998, SURF_ID = 'Plasterboard'/
&OBST ID='HALF LANDING', XB = 3.6, 4.800000000000001, 11.2, 14.200000000000001,24.4, 24.599999999999998, SURF_ID = 'Plasterboard'/
&OBST ID='HALF LANDING', XB = 3.6, 4.800000000000001, 11.2, 14.200000000000001,27.4, 27.599999999999998, SURF_ID = 'Plasterboard'/
&OBST ID='HALF LANDING', XB = 3.6, 4.800000000000001, 11.2, 14.200000000000001,30.4, 30.599999999999998, SURF_ID = 'Plasterboard'/
&OBST ID='STEP1', XB = 7.6, 7.8, 12.7, 14.2,0.0, 0.133, SURF_ID = 'Plasterboard'/
&OBST ID='STEP1', XB = 7.4, 7.6, 12.7, 14.2,0.133, 0.267, SURF_ID = 'Plasterboard'/
&OBST ID='STEP1', XB = 7.2, 7.4, 12.7, 14.2,0.267, 0.4, SURF_ID = 'Plasterboard'/
&OBST ID='STEP1', XB = 7.0, 7.2, 12.7, 14.2,0.4, 0.533, SURF_ID = 'Plasterboard'/
&OBST ID='STEP1', XB = 6.8, 7.0, 12.7, 14.2,0.533, 0.667, SURF_ID = 'Plasterboard'/
&OBST ID='STEP1', XB = 6.6, 6.8, 12.7, 14.2,0.667, 0.8, SURF_ID = 'Plasterboard'/
&OBST ID='STEP1', XB = 6.4, 6.6, 12.7, 14.2,0.8, 0.933, SURF_ID = 'Plasterboard'/
&OBST ID='STEP1', XB = 6.2, 6.4, 12.7, 14.2,0.933, 1.067, SURF_ID = 'Plasterboard'/
&OBST ID='STEP1', XB = 6.0, 6.2, 12.7, 14.2,1.067, 1.2, SURF_ID = 'Plasterboard'/
&OBST ID='STEP1', XB = 5.8, 6.0, 12.7, 14.2,1.2, 1.333, SURF_ID = 'Plasterboard'/
&OBST ID='STEP1', XB = 5.6, 5.8, 12.7, 14.2,1.333, 1.467, SURF_ID = 'Plasterboard'/
&OBST ID='STEP1', XB = 5.4, 5.6, 12.7, 14.2,1.467, 1.6, SURF_ID = 'Plasterboard'/
&OBST ID='STEP1', XB = 5.2, 5.4, 12.7, 14.2,1.6, 1.733, SURF_ID = 'Plasterboard'/
&OBST ID='STEP1', XB = 5.0, 5.2, 12.7, 14.2,1.733, 1.867, SURF_ID = 'Plasterboard'/
&OBST ID='STEP1', XB = 4.8, 5.0, 12.7, 14.2,1.867, 2.0, SURF_ID = 'Plasterboard'/