PD1.fds
Generated by PyroSim - Version 2023.2.0816
19 Sep 2023, 12:20:42

&HEAD CHID='PD1'/
&TIME T_END=1800.0/
&DUMP DT_DEVC=1.0, DT_RESTART=400.0/

&MESH ID='MESH', IJK=43,66,27, XB=-0.1,4.2,-0.1,6.5,0.0,2.7/
&MESH ID='MESH01', IJK=41,66,28, XB=-0.1,4.0,-0.1,6.5,2.7,5.5/
&MESH ID='MESH02', IJK=31,56,23, XB=-0.1,3.0,0.9,6.5,5.5,7.8/

&SPEC ID='WATER VAPOR'/
&SPEC ID='REAC_FUEL', FORMULA='C3.434H6.19O2.483N0.017'/

&PART ID='Water',
      SPEC_ID='WATER VAPOR',
      DIAMETER=500.0,
      MONODISPERSE=.TRUE.,
      AGE=10.0,
      SAMPLING_FACTOR=1/

&REAC ID='Fire',
      FUEL='REAC_FUEL',
      AUTO_IGNITION_TEMPERATURE=0.0,
      CO_YIELD=6.4E-3,
      SOOT_YIELD=0.016,
      HCN_YIELD=5.0E-5,
      HEAT_OF_COMBUSTION=1.807564E+4/

&PROP ID='Cleary Photoelectric P1',
      QUANTITY='CHAMBER OBSCURATION',
      ALPHA_E=1.8,
      BETA_E=-1.0,
      ALPHA_C=1.0,
      BETA_C=-0.8/
&PROP ID='BS 9251',
      PART_ID='Water',
      FLOW_RATE=49.05,
      PARTICLE_VELOCITY=5.0,
      SPRAY_ANGLE=60.0,75.0/
&DEVC ID='CD1', QUANTITY='DENSITY', SPEC_ID='CARBON DIOXIDE', XYZ=0.4,3.8,7.1/
&DEVC ID='CD2', QUANTITY='DENSITY', SPEC_ID='CARBON DIOXIDE', XYZ=0.4,6.0,5.4/
&DEVC ID='CD3', QUANTITY='DENSITY', SPEC_ID='CARBON DIOXIDE', XYZ=1.4,6.0,5.4/
&DEVC ID='CD4', QUANTITY='DENSITY', SPEC_ID='CARBON DIOXIDE', XYZ=0.9,3.9,4.4/
&DEVC ID='CD5', QUANTITY='DENSITY', SPEC_ID='CARBON DIOXIDE', XYZ=0.4,6.0,3.2/
&DEVC ID='CD6', QUANTITY='DENSITY', SPEC_ID='CARBON DIOXIDE', XYZ=1.4,6.0,2.4/
&DEVC ID='CD7', QUANTITY='DENSITY', SPEC_ID='CARBON DIOXIDE', XYZ=1.4,4.0,1.7/
&DEVC ID='CD8', QUANTITY='DENSITY', SPEC_ID='CARBON DIOXIDE', XYZ=0.6,3.2,1.7/
&DEVC ID='CD9', QUANTITY='DENSITY', SPEC_ID='CARBON DIOXIDE', XYZ=0.6,1.6,1.7/
&DEVC ID='CD10', QUANTITY='DENSITY', SPEC_ID='CARBON DIOXIDE', XYZ=0.6,0.1,1.7/
&DEVC ID='CM1', QUANTITY='DENSITY', SPEC_ID='CARBON MONOXIDE', XYZ=0.4,3.8,7.1/
&DEVC ID='CM2', QUANTITY='DENSITY', SPEC_ID='CARBON MONOXIDE', XYZ=0.4,6.0,5.4/
&DEVC ID='CM3', QUANTITY='DENSITY', SPEC_ID='CARBON MONOXIDE', XYZ=1.4,6.0,5.4/
&DEVC ID='CM4', QUANTITY='DENSITY', SPEC_ID='CARBON MONOXIDE', XYZ=0.9,3.9,4.4/
&DEVC ID='CM5', QUANTITY='DENSITY', SPEC_ID='CARBON MONOXIDE', XYZ=0.4,6.0,3.2/
&DEVC ID='CM6', QUANTITY='DENSITY', SPEC_ID='CARBON MONOXIDE', XYZ=1.4,6.0,2.4/
&DEVC ID='CM7', QUANTITY='DENSITY', SPEC_ID='CARBON MONOXIDE', XYZ=1.4,4.0,1.7/
&DEVC ID='CM8', QUANTITY='DENSITY', SPEC_ID='CARBON MONOXIDE', XYZ=0.6,3.2,1.7/
&DEVC ID='CM9', QUANTITY='DENSITY', SPEC_ID='CARBON MONOXIDE', XYZ=0.6,1.6,1.7/
&DEVC ID='CM10', QUANTITY='DENSITY', SPEC_ID='CARBON MONOXIDE', XYZ=0.6,0.1,1.7/
&DEVC ID='HCN1', QUANTITY='DENSITY', SPEC_ID='HYDROGEN CYANIDE', XYZ=0.4,3.8,7.1/
&DEVC ID='HCN2', QUANTITY='DENSITY', SPEC_ID='HYDROGEN CYANIDE', XYZ=0.4,6.0,5.4/
&DEVC ID='HCN3', QUANTITY='DENSITY', SPEC_ID='HYDROGEN CYANIDE', XYZ=1.4,6.0,5.4/
&DEVC ID='HCN4', QUANTITY='DENSITY', SPEC_ID='HYDROGEN CYANIDE', XYZ=0.9,3.9,4.4/
&DEVC ID='HCN5', QUANTITY='DENSITY', SPEC_ID='HYDROGEN CYANIDE', XYZ=0.4,6.0,3.2/
&DEVC ID='HCN6', QUANTITY='DENSITY', SPEC_ID='HYDROGEN CYANIDE', XYZ=1.4,6.0,2.4/
&DEVC ID='HCN7', QUANTITY='DENSITY', SPEC_ID='HYDROGEN CYANIDE', XYZ=1.4,4.0,1.7/
&DEVC ID='HCN8', QUANTITY='DENSITY', SPEC_ID='HYDROGEN CYANIDE', XYZ=0.6,3.2,1.7/
&DEVC ID='HCN9', QUANTITY='DENSITY', SPEC_ID='HYDROGEN CYANIDE', XYZ=0.6,1.6,1.7/
&DEVC ID='HCN10', QUANTITY='DENSITY', SPEC_ID='HYDROGEN CYANIDE', XYZ=0.6,0.1,1.7/
&DEVC ID='VIS1', QUANTITY='VISIBILITY', XYZ=0.4,3.8,7.1/
&DEVC ID='VIS2', QUANTITY='VISIBILITY', XYZ=0.4,6.0,5.4/
&DEVC ID='VIS3', QUANTITY='VISIBILITY', XYZ=1.4,6.0,5.4/
&DEVC ID='VIS4', QUANTITY='VISIBILITY', XYZ=0.9,3.9,4.4/
&DEVC ID='VIS5', QUANTITY='VISIBILITY', XYZ=0.4,6.0,3.2/
&DEVC ID='VIS6', QUANTITY='VISIBILITY', XYZ=1.4,6.0,2.4/
&DEVC ID='VIS7', QUANTITY='VISIBILITY', XYZ=1.4,4.0,1.7/
&DEVC ID='VIS8', QUANTITY='VISIBILITY', XYZ=0.6,3.2,1.7/
&DEVC ID='VIS9', QUANTITY='VISIBILITY', XYZ=0.6,1.6,1.7/
&DEVC ID='VIS10', QUANTITY='VISIBILITY', XYZ=0.6,0.1,1.7/
&DEVC ID='TEMP1', QUANTITY='TEMPERATURE', XYZ=0.4,3.8,7.1/
&DEVC ID='TEMP2', QUANTITY='TEMPERATURE', XYZ=0.4,6.0,5.4/
&DEVC ID='TEMP3', QUANTITY='TEMPERATURE', XYZ=1.4,6.0,5.4/
&DEVC ID='TEMP4', QUANTITY='TEMPERATURE', XYZ=0.9,3.9,4.4/
&DEVC ID='TEMP5', QUANTITY='TEMPERATURE', XYZ=0.4,6.0,3.2/
&DEVC ID='TEMP6', QUANTITY='TEMPERATURE', XYZ=1.4,6.0,2.4/
&DEVC ID='TEMP7', QUANTITY='TEMPERATURE', XYZ=1.4,4.0,1.7/
&DEVC ID='TEMP8', QUANTITY='TEMPERATURE', XYZ=0.6,3.2,1.7/
&DEVC ID='TEMP9', QUANTITY='TEMPERATURE', XYZ=0.6,1.6,1.7/
&DEVC ID='TEMP10', QUANTITY='TEMPERATURE', XYZ=0.6,0.1,1.7/
&DEVC ID='RAD1', QUANTITY='RADIATIVE HEAT FLUX GAS', XYZ=0.4,3.8,7.1/
&DEVC ID='RAD2', QUANTITY='RADIATIVE HEAT FLUX GAS', XYZ=0.4,6.0,5.4/
&DEVC ID='RAD3', QUANTITY='RADIATIVE HEAT FLUX GAS', XYZ=1.4,6.0,5.4/
&DEVC ID='RAD4', QUANTITY='RADIATIVE HEAT FLUX GAS', XYZ=0.9,3.9,4.4/
&DEVC ID='RAD5', QUANTITY='RADIATIVE HEAT FLUX GAS', XYZ=0.4,6.0,3.2/
&DEVC ID='RAD6', QUANTITY='RADIATIVE HEAT FLUX GAS', XYZ=1.4,6.0,2.4/
&DEVC ID='RAD7', QUANTITY='RADIATIVE HEAT FLUX GAS', XYZ=1.4,4.0,1.7/
&DEVC ID='RAD8', QUANTITY='RADIATIVE HEAT FLUX GAS', XYZ=0.6,3.2,1.7/
&DEVC ID='RAD9', QUANTITY='RADIATIVE HEAT FLUX GAS', XYZ=0.6,1.6,1.7/
&DEVC ID='RAD10', QUANTITY='RADIATIVE HEAT FLUX GAS', XYZ=0.6,0.1,1.7/
&DEVC ID='WATER1', QUANTITY='VOLUME FRACTION', SPEC_ID='WATER VAPOR', XYZ=0.4,3.8,7.1/
&DEVC ID='WATER2', QUANTITY='VOLUME FRACTION', SPEC_ID='WATER VAPOR', XYZ=0.4,6.0,5.4/
&DEVC ID='WATER3', QUANTITY='VOLUME FRACTION', SPEC_ID='WATER VAPOR', XYZ=1.4,6.0,5.4/
&DEVC ID='WATER4', QUANTITY='VOLUME FRACTION', SPEC_ID='WATER VAPOR', XYZ=0.9,3.9,4.4/
&DEVC ID='WATER5', QUANTITY='VOLUME FRACTION', SPEC_ID='WATER VAPOR', XYZ=0.4,6.0,3.2/
&DEVC ID='WATER6', QUANTITY='VOLUME FRACTION', SPEC_ID='WATER VAPOR', XYZ=1.4,6.0,2.4/
&DEVC ID='WATER7', QUANTITY='VOLUME FRACTION', SPEC_ID='WATER VAPOR', XYZ=1.4,4.0,1.7/
&DEVC ID='WATER8', QUANTITY='VOLUME FRACTION', SPEC_ID='WATER VAPOR', XYZ=0.6,3.2,1.7/
&DEVC ID='WATER9', QUANTITY='VOLUME FRACTION', SPEC_ID='WATER VAPOR', XYZ=0.6,1.6,1.7/
&DEVC ID='WATER10', QUANTITY='VOLUME FRACTION', SPEC_ID='WATER VAPOR', XYZ=0.6,0.1,1.7/
&DEVC ID='Smoke detector LDLD1_01', PROP_ID='Cleary Photoelectric P1', XYZ=0.6,2.6,2.4/
&DEVC ID='Smoke detector LDLD1_02', PROP_ID='Cleary Photoelectric P1', XYZ=0.9,4.1,4.8/
&DEVC ID='Smoke detector LDLD1_03', PROP_ID='Cleary Photoelectric P1', XYZ=0.4,3.7,7.2/
&DEVC ID='Smoke detector LDLD1_00', PROP_ID='Cleary Photoelectric P1', XYZ=2.0,2.163348,2.4/
&DEVC ID='Lounge_Fire_1_SPRK1', PROP_ID='BS 9251', XYZ=2.0,2.4,2.4, QUANTITY='TIME', SETPOINT=184.0/

&MATL ID='GYPSUM PLASTER',
      FYI='Quintiere',
      SPECIFIC_HEAT=0.84,
      CONDUCTIVITY=0.48,
      DENSITY=1440.0/

&SURF ID='Gypsum',
      RGB=146,202,166,
      DEFAULT=.TRUE.,
      BACKING='INSULATED',
      MATL_ID(1,1)='GYPSUM PLASTER',
      MATL_MASS_FRACTION(1,1)=1.0,
      THICKNESS(1)=0.025/
&SURF ID='ADIABATIC',
      COLOR='GRAY 80',
      ADIABATIC=.TRUE./
&SURF ID='Ring 1',
      COLOR='RED',
      HRRPUA=496.296296,
      RAMP_Q='Ring 1_RAMP_Q',
      TMP_FRONT=300.0/
&RAMP ID='Ring 1_RAMP_Q', T=0.0, F=0.0/
&RAMP ID='Ring 1_RAMP_Q', T=1.0, F=5.894E-4/
&RAMP ID='Ring 1_RAMP_Q', T=2.0, F=2.3575E-3/
&RAMP ID='Ring 1_RAMP_Q', T=3.0, F=5.3043E-3/
&RAMP ID='Ring 1_RAMP_Q', T=4.0, F=9.4299E-3/
&RAMP ID='Ring 1_RAMP_Q', T=5.0, F=0.014734/
&RAMP ID='Ring 1_RAMP_Q', T=6.0, F=0.021217/
&RAMP ID='Ring 1_RAMP_Q', T=7.0, F=0.028879/
&RAMP ID='Ring 1_RAMP_Q', T=8.0, F=0.037719/
&RAMP ID='Ring 1_RAMP_Q', T=9.0, F=0.047739/
&RAMP ID='Ring 1_RAMP_Q', T=10.0, F=0.058937/
&RAMP ID='Ring 1_RAMP_Q', T=11.0, F=0.071313/
&RAMP ID='Ring 1_RAMP_Q', T=12.0, F=0.084869/
&RAMP ID='Ring 1_RAMP_Q', T=13.0, F=0.099603/
&RAMP ID='Ring 1_RAMP_Q', T=14.0, F=0.115516/
&RAMP ID='Ring 1_RAMP_Q', T=15.0, F=0.132607/
&RAMP ID='Ring 1_RAMP_Q', T=16.0, F=0.150878/
&RAMP ID='Ring 1_RAMP_Q', T=17.0, F=0.170327/
&RAMP ID='Ring 1_RAMP_Q', T=18.0, F=0.190954/
&RAMP ID='Ring 1_RAMP_Q', T=19.0, F=0.212761/
&RAMP ID='Ring 1_RAMP_Q', T=20.0, F=0.235746/
&RAMP ID='Ring 1_RAMP_Q', T=21.0, F=0.25991/
&RAMP ID='Ring 1_RAMP_Q', T=22.0, F=0.285253/
&RAMP ID='Ring 1_RAMP_Q', T=23.0, F=0.311774/
&RAMP ID='Ring 1_RAMP_Q', T=24.0, F=0.339475/
&RAMP ID='Ring 1_RAMP_Q', T=25.0, F=0.368354/
&RAMP ID='Ring 1_RAMP_Q', T=26.0, F=0.398411/
&RAMP ID='Ring 1_RAMP_Q', T=27.0, F=0.429648/
&RAMP ID='Ring 1_RAMP_Q', T=28.0, F=0.462063/
&RAMP ID='Ring 1_RAMP_Q', T=29.0, F=0.495656/
&RAMP ID='Ring 1_RAMP_Q', T=30.0, F=0.530429/
&RAMP ID='Ring 1_RAMP_Q', T=31.0, F=0.56638/
&RAMP ID='Ring 1_RAMP_Q', T=32.0, F=0.60351/
&RAMP ID='Ring 1_RAMP_Q', T=33.0, F=0.641819/
&RAMP ID='Ring 1_RAMP_Q', T=34.0, F=0.681307/
&RAMP ID='Ring 1_RAMP_Q', T=35.0, F=0.721973/
&RAMP ID='Ring 1_RAMP_Q', T=36.0, F=0.763818/
&RAMP ID='Ring 1_RAMP_Q', T=37.0, F=0.806842/
&RAMP ID='Ring 1_RAMP_Q', T=38.0, F=0.851044/
&RAMP ID='Ring 1_RAMP_Q', T=39.0, F=0.896425/
&RAMP ID='Ring 1_RAMP_Q', T=40.0, F=0.942985/
&RAMP ID='Ring 1_RAMP_Q', T=41.0, F=0.990724/
&RAMP ID='Ring 1_RAMP_Q', T=41.191498, F=1.0/
&RAMP ID='Ring 1_RAMP_Q', T=184.76609, F=1.0/
&RAMP ID='Ring 1_RAMP_Q', T=304.76609, F=0.0/
&SURF ID='Ring 2',
      COLOR='RED',
      HRRPUA=496.296296,
      RAMP_Q='Ring 2_RAMP_Q',
      TMP_FRONT=300.0/
&RAMP ID='Ring 2_RAMP_Q', T=41.191498, F=0.0/
&RAMP ID='Ring 2_RAMP_Q', T=41.191598, F=1.6E-6/
&RAMP ID='Ring 2_RAMP_Q', T=42.191598, F=0.016383/
&RAMP ID='Ring 2_RAMP_Q', T=43.191598, F=0.033157/
&RAMP ID='Ring 2_RAMP_Q', T=44.191598, F=0.050324/
&RAMP ID='Ring 2_RAMP_Q', T=45.191598, F=0.067883/
&RAMP ID='Ring 2_RAMP_Q', T=46.191598, F=0.085836/
&RAMP ID='Ring 2_RAMP_Q', T=47.191598, F=0.104182/
&RAMP ID='Ring 2_RAMP_Q', T=48.191598, F=0.12292/
&RAMP ID='Ring 2_RAMP_Q', T=49.191598, F=0.142052/
&RAMP ID='Ring 2_RAMP_Q', T=50.191598, F=0.161576/
&RAMP ID='Ring 2_RAMP_Q', T=51.191598, F=0.181493/
&RAMP ID='Ring 2_RAMP_Q', T=52.191598, F=0.201803/
&RAMP ID='Ring 2_RAMP_Q', T=53.191598, F=0.222506/
&RAMP ID='Ring 2_RAMP_Q', T=54.191598, F=0.243602/
&RAMP ID='Ring 2_RAMP_Q', T=55.191598, F=0.265091/
&RAMP ID='Ring 2_RAMP_Q', T=56.191598, F=0.286973/
&RAMP ID='Ring 2_RAMP_Q', T=57.191598, F=0.309248/
&RAMP ID='Ring 2_RAMP_Q', T=58.191598, F=0.331915/
&RAMP ID='Ring 2_RAMP_Q', T=59.191598, F=0.354976/
&RAMP ID='Ring 2_RAMP_Q', T=60.191598, F=0.378429/
&RAMP ID='Ring 2_RAMP_Q', T=61.191598, F=0.402276/
&RAMP ID='Ring 2_RAMP_Q', T=62.191598, F=0.426515/
&RAMP ID='Ring 2_RAMP_Q', T=63.191598, F=0.451147/
&RAMP ID='Ring 2_RAMP_Q', T=64.191598, F=0.476172/
&RAMP ID='Ring 2_RAMP_Q', T=65.191598, F=0.50159/
&RAMP ID='Ring 2_RAMP_Q', T=66.191598, F=0.527401/
&RAMP ID='Ring 2_RAMP_Q', T=67.191598, F=0.553605/
&RAMP ID='Ring 2_RAMP_Q', T=68.191598, F=0.580202/
&RAMP ID='Ring 2_RAMP_Q', T=69.191598, F=0.607192/
&RAMP ID='Ring 2_RAMP_Q', T=70.191598, F=0.634574/
&RAMP ID='Ring 2_RAMP_Q', T=71.191598, F=0.66235/
&RAMP ID='Ring 2_RAMP_Q', T=72.191598, F=0.690518/
&RAMP ID='Ring 2_RAMP_Q', T=73.191598, F=0.719079/
&RAMP ID='Ring 2_RAMP_Q', T=74.191598, F=0.748034/
&RAMP ID='Ring 2_RAMP_Q', T=75.191598, F=0.777381/
&RAMP ID='Ring 2_RAMP_Q', T=76.191598, F=0.807121/
&RAMP ID='Ring 2_RAMP_Q', T=77.191598, F=0.837253/
&RAMP ID='Ring 2_RAMP_Q', T=78.191598, F=0.867779/
&RAMP ID='Ring 2_RAMP_Q', T=79.191598, F=0.898698/
&RAMP ID='Ring 2_RAMP_Q', T=80.191598, F=0.93001/
&RAMP ID='Ring 2_RAMP_Q', T=81.191598, F=0.961714/
&RAMP ID='Ring 2_RAMP_Q', T=82.191598, F=0.993812/
&RAMP ID='Ring 2_RAMP_Q', T=82.382995, F=1.0/
&RAMP ID='Ring 2_RAMP_Q', T=184.76609, F=1.0/
&RAMP ID='Ring 2_RAMP_Q', T=304.76609, F=0.0/
&SURF ID='Ring 3',
      COLOR='RED',
      HRRPUA=496.296296,
      RAMP_Q='Ring 3_RAMP_Q',
      TMP_FRONT=300.0/
&RAMP ID='Ring 3_RAMP_Q', T=82.382995, F=0.0/
&RAMP ID='Ring 3_RAMP_Q', T=82.383095, F=1.9E-6/
&RAMP ID='Ring 3_RAMP_Q', T=83.383095, F=0.019541/
&RAMP ID='Ring 3_RAMP_Q', T=84.383095, F=0.039316/
&RAMP ID='Ring 3_RAMP_Q', T=85.383095, F=0.059327/
&RAMP ID='Ring 3_RAMP_Q', T=86.383095, F=0.079574/
&RAMP ID='Ring 3_RAMP_Q', T=87.383095, F=0.100056/
&RAMP ID='Ring 3_RAMP_Q', T=88.383095, F=0.120774/
&RAMP ID='Ring 3_RAMP_Q', T=89.383095, F=0.141728/
&RAMP ID='Ring 3_RAMP_Q', T=90.383095, F=0.162918/
&RAMP ID='Ring 3_RAMP_Q', T=91.383095, F=0.184343/
&RAMP ID='Ring 3_RAMP_Q', T=92.383095, F=0.206004/
&RAMP ID='Ring 3_RAMP_Q', T=93.383095, F=0.227901/
&RAMP ID='Ring 3_RAMP_Q', T=94.383095, F=0.250034/
&RAMP ID='Ring 3_RAMP_Q', T=95.383095, F=0.272402/
&RAMP ID='Ring 3_RAMP_Q', T=96.383095, F=0.295006/
&RAMP ID='Ring 3_RAMP_Q', T=97.383095, F=0.317846/
&RAMP ID='Ring 3_RAMP_Q', T=98.383095, F=0.340922/
&RAMP ID='Ring 3_RAMP_Q', T=99.383095, F=0.364233/
&RAMP ID='Ring 3_RAMP_Q', T=100.383095, F=0.38778/
&RAMP ID='Ring 3_RAMP_Q', T=101.383095, F=0.411563/
&RAMP ID='Ring 3_RAMP_Q', T=102.383095, F=0.435581/
&RAMP ID='Ring 3_RAMP_Q', T=103.383095, F=0.459836/
&RAMP ID='Ring 3_RAMP_Q', T=104.383095, F=0.484326/
&RAMP ID='Ring 3_RAMP_Q', T=105.383095, F=0.509051/
&RAMP ID='Ring 3_RAMP_Q', T=106.383095, F=0.534013/
&RAMP ID='Ring 3_RAMP_Q', T=107.383095, F=0.55921/
&RAMP ID='Ring 3_RAMP_Q', T=108.383095, F=0.584643/
&RAMP ID='Ring 3_RAMP_Q', T=109.383095, F=0.610312/
&RAMP ID='Ring 3_RAMP_Q', T=110.383095, F=0.636217/
&RAMP ID='Ring 3_RAMP_Q', T=111.383095, F=0.662357/
&RAMP ID='Ring 3_RAMP_Q', T=112.383095, F=0.688733/
&RAMP ID='Ring 3_RAMP_Q', T=113.383095, F=0.715345/
&RAMP ID='Ring 3_RAMP_Q', T=114.383095, F=0.742192/
&RAMP ID='Ring 3_RAMP_Q', T=115.383095, F=0.769276/
&RAMP ID='Ring 3_RAMP_Q', T=116.383095, F=0.796594/
&RAMP ID='Ring 3_RAMP_Q', T=117.383095, F=0.824149/
&RAMP ID='Ring 3_RAMP_Q', T=118.383095, F=0.85194/
&RAMP ID='Ring 3_RAMP_Q', T=119.383095, F=0.879966/
&RAMP ID='Ring 3_RAMP_Q', T=120.383095, F=0.908228/
&RAMP ID='Ring 3_RAMP_Q', T=121.383095, F=0.936726/
&RAMP ID='Ring 3_RAMP_Q', T=122.383095, F=0.965459/
&RAMP ID='Ring 3_RAMP_Q', T=123.383095, F=0.994429/
&RAMP ID='Ring 3_RAMP_Q', T=123.574493, F=1.0/
&RAMP ID='Ring 3_RAMP_Q', T=184.76609, F=1.0/
&RAMP ID='Ring 3_RAMP_Q', T=304.76609, F=0.0/
&SURF ID='Ring 4',
      COLOR='RED',
      HRRPUA=496.296296,
      RAMP_Q='Ring 4_RAMP_Q',
      TMP_FRONT=300.0/
&RAMP ID='Ring 4_RAMP_Q', T=123.574493, F=0.0/
&RAMP ID='Ring 4_RAMP_Q', T=123.574593, F=2.1E-6/
&RAMP ID='Ring 4_RAMP_Q', T=124.574593, F=0.020895/
&RAMP ID='Ring 4_RAMP_Q', T=125.574593, F=0.041956/
&RAMP ID='Ring 4_RAMP_Q', T=126.574593, F=0.063186/
&RAMP ID='Ring 4_RAMP_Q', T=127.574593, F=0.084584/
&RAMP ID='Ring 4_RAMP_Q', T=128.574593, F=0.106151/
&RAMP ID='Ring 4_RAMP_Q', T=129.574593, F=0.127886/
&RAMP ID='Ring 4_RAMP_Q', T=130.574593, F=0.149789/
&RAMP ID='Ring 4_RAMP_Q', T=131.574593, F=0.171861/
&RAMP ID='Ring 4_RAMP_Q', T=132.574593, F=0.194101/
&RAMP ID='Ring 4_RAMP_Q', T=133.574593, F=0.216509/
&RAMP ID='Ring 4_RAMP_Q', T=134.574593, F=0.239086/
&RAMP ID='Ring 4_RAMP_Q', T=135.574593, F=0.261831/
&RAMP ID='Ring 4_RAMP_Q', T=136.574593, F=0.284745/
&RAMP ID='Ring 4_RAMP_Q', T=137.574593, F=0.307827/
&RAMP ID='Ring 4_RAMP_Q', T=138.574593, F=0.331077/
&RAMP ID='Ring 4_RAMP_Q', T=139.574593, F=0.354496/
&RAMP ID='Ring 4_RAMP_Q', T=140.574593, F=0.378083/
&RAMP ID='Ring 4_RAMP_Q', T=141.574593, F=0.401839/
&RAMP ID='Ring 4_RAMP_Q', T=142.574593, F=0.425763/
&RAMP ID='Ring 4_RAMP_Q', T=143.574593, F=0.449855/
&RAMP ID='Ring 4_RAMP_Q', T=144.574593, F=0.474116/
&RAMP ID='Ring 4_RAMP_Q', T=145.574593, F=0.498545/
&RAMP ID='Ring 4_RAMP_Q', T=146.574593, F=0.523142/
&RAMP ID='Ring 4_RAMP_Q', T=147.574593, F=0.547908/
&RAMP ID='Ring 4_RAMP_Q', T=148.574593, F=0.572843/
&RAMP ID='Ring 4_RAMP_Q', T=149.574593, F=0.597946/
&RAMP ID='Ring 4_RAMP_Q', T=150.574593, F=0.623216/
&RAMP ID='Ring 4_RAMP_Q', T=151.574593, F=0.648656/
&RAMP ID='Ring 4_RAMP_Q', T=152.574593, F=0.674264/
&RAMP ID='Ring 4_RAMP_Q', T=153.574593, F=0.70004/
&RAMP ID='Ring 4_RAMP_Q', T=154.574593, F=0.725985/
&RAMP ID='Ring 4_RAMP_Q', T=155.574593, F=0.752098/
&RAMP ID='Ring 4_RAMP_Q', T=156.574593, F=0.778379/
&RAMP ID='Ring 4_RAMP_Q', T=157.574593, F=0.804829/
&RAMP ID='Ring 4_RAMP_Q', T=158.574593, F=0.831447/
&RAMP ID='Ring 4_RAMP_Q', T=159.574593, F=0.858234/
&RAMP ID='Ring 4_RAMP_Q', T=160.574593, F=0.885189/
&RAMP ID='Ring 4_RAMP_Q', T=161.574593, F=0.912312/
&RAMP ID='Ring 4_RAMP_Q', T=162.574593, F=0.939604/
&RAMP ID='Ring 4_RAMP_Q', T=163.574593, F=0.967064/
&RAMP ID='Ring 4_RAMP_Q', T=164.574593, F=0.994693/
&RAMP ID='Ring 4_RAMP_Q', T=164.76599, F=1.0/
&RAMP ID='Ring 4_RAMP_Q', T=184.76609, F=1.0/
&RAMP ID='Ring 4_RAMP_Q', T=304.76609, F=0.0/
&SURF ID='Ring 5',
      COLOR='RED',
      HRRPUA=496.296296,
      RAMP_Q='Ring 5_RAMP_Q',
      TMP_FRONT=300.0/
&RAMP ID='Ring 5_RAMP_Q', T=164.76599, F=0.0/
&RAMP ID='Ring 5_RAMP_Q', T=164.76609, F=2.2E-6/
&RAMP ID='Ring 5_RAMP_Q', T=165.76609, F=0.021647/
&RAMP ID='Ring 5_RAMP_Q', T=166.76609, F=0.043423/
&RAMP ID='Ring 5_RAMP_Q', T=167.76609, F=0.06533/
&RAMP ID='Ring 5_RAMP_Q', T=168.76609, F=0.087368/
&RAMP ID='Ring 5_RAMP_Q', T=169.76609, F=0.109536/
&RAMP ID='Ring 5_RAMP_Q', T=170.76609, F=0.131836/
&RAMP ID='Ring 5_RAMP_Q', T=171.76609, F=0.154267/
&RAMP ID='Ring 5_RAMP_Q', T=172.76609, F=0.176829/
&RAMP ID='Ring 5_RAMP_Q', T=173.76609, F=0.199521/
&RAMP ID='Ring 5_RAMP_Q', T=174.76609, F=0.222345/
&RAMP ID='Ring 5_RAMP_Q', T=175.76609, F=0.2453/
&RAMP ID='Ring 5_RAMP_Q', T=176.76609, F=0.268385/
&RAMP ID='Ring 5_RAMP_Q', T=177.76609, F=0.291602/
&RAMP ID='Ring 5_RAMP_Q', T=178.76609, F=0.314949/
&RAMP ID='Ring 5_RAMP_Q', T=179.76609, F=0.338428/
&RAMP ID='Ring 5_RAMP_Q', T=180.76609, F=0.362037/
&RAMP ID='Ring 5_RAMP_Q', T=181.76609, F=0.385778/
&RAMP ID='Ring 5_RAMP_Q', T=182.76609, F=0.409649/
&RAMP ID='Ring 5_RAMP_Q', T=183.76609, F=0.433652/
&RAMP ID='Ring 5_RAMP_Q', T=184.76609, F=0.457785/
&RAMP ID='Ring 5_RAMP_Q', T=304.76609, F=0.0/

&OBST ID='Flat_Entrance_Door', XB=0.2,1.1,-1.387779E-17,0.0,8.326673E-17,2.1, COLOR='GREEN', SURF_ID='Gypsum'/ 
&OBST ID='Wall', XB=2.0,2.1,3.5,4.7,2.7,5.4, SURF_ID='Gypsum'/ 
&OBST ID='Wall', XB=0.0,3.9,3.4,3.5,2.7,5.4, SURF_ID='Gypsum'/ 
&OBST ID='Wall', XB=1.8,2.1,4.7,6.5,2.7,5.4, SURF_ID='Gypsum'/ 
&OBST ID='Wall', XB=-0.1,0.0,1.0,6.4,5.4,7.5, RGB=240,240,240, TRANSPARENCY=0.247059, SURF_ID='Gypsum'/ 
&OBST ID='Wall', XB=-0.1,-1.387779E-17,-1.387779E-17,6.4,0.0,2.7, RGB=146,202,166, TRANSPARENCY=0.247059/ 
&OBST ID='Wall', XB=-0.1,4.0,-0.1,-1.387779E-17,0.0,2.7, RGB=146,202,166, TRANSPARENCY=0.247059/ 
&OBST ID='Wall', XB=-0.1,4.0,6.4,6.5,0.0,2.7, RGB=146,202,166, TRANSPARENCY=0.247059/ 
&OBST ID='Wall', XB=1.8,1.9,4.6,6.4,0.0,2.5/ 
&OBST ID='Wall', XB=1.8,3.9,4.5,4.6,0.0,2.5/ 
&OBST ID='Wall', XB=3.7,3.8,1.5,2.4,0.0,2.7, RGB=146,202,166, TRANSPARENCY=0.247059/ 
&OBST ID='Wall', XB=3.7,4.0,1.4,1.5,0.0,2.7, RGB=146,202,166, TRANSPARENCY=0.247059/ 
&OBST ID='Wall', XB=3.7,4.0,2.4,2.5,0.0,2.7, RGB=146,202,166, TRANSPARENCY=0.247059/ 
&OBST ID='Wall', XB=3.9,4.0,-1.387779E-17,1.4,0.0,2.7, RGB=146,202,166, TRANSPARENCY=0.247059/ 
&OBST ID='Wall', XB=3.9,4.0,2.5,6.4,0.0,2.7, RGB=146,202,166, TRANSPARENCY=0.247059/ 
&OBST ID='Wall', XB=-0.1,-2.775558E-17,-2.775558E-17,6.4,2.7,5.4, RGB=146,202,166, TRANSPARENCY=0.247059,  SURF_ID='Gypsum'/ 
&OBST ID='Wall', XB=-0.1,4.0,-0.1,-2.775558E-17,2.7,5.4, RGB=146,202,166, TRANSPARENCY=0.247059,  SURF_ID='Gypsum'/ 
&OBST ID='Wall', XB=-0.1,4.0,6.4,6.5,2.7,5.4, RGB=146,202,166, TRANSPARENCY=0.247059,  SURF_ID='Gypsum'/ 
&OBST ID='Wall', XB=-2.775558E-17,1.0,3.4,3.5,5.4,5.5,  SURF_ID='Gypsum'/ 
&OBST ID='Wall', XB=-2.775558E-17,1.0,6.3,6.4,5.4,5.5, SURF_ID='Gypsum'/ 
&OBST ID='Wall', XB=-2.775558E-17,2.9,1.0,1.1,5.4,5.5, RGB=146,202,166, TRANSPARENCY=0.247059,  SURF_ID='Gypsum'/ 
&OBST ID='Wall', XB=0.9,1.0,3.5,6.3,5.4,5.5, SURF_ID='Gypsum'/ 
&OBST ID='Wall', XB=1.0,2.9,4.6,4.7,5.4,5.5, RGB=146,202,166, TRANSPARENCY=0.247059,  SURF_ID='Gypsum'/ 
&OBST ID='Wall', XB=2.8,2.9,1.1,4.6,5.4,5.5, RGB=146,202,166, TRANSPARENCY=0.247059, SURF_ID='Gypsum'/ 
&OBST ID='Wall', XB=3.7,3.8,1.8,2.1,2.7,5.4, RGB=146,202,166, TRANSPARENCY=0.247059,  SURF_ID='Gypsum'/ 
&OBST ID='Wall', XB=3.7,4.0,1.7,1.8,2.7,5.4, RGB=146,202,166, TRANSPARENCY=0.247059,  SURF_ID='Gypsum'/ 
&OBST ID='Wall', XB=3.7,4.0,2.1,2.2,2.7,5.4, RGB=146,202,166, TRANSPARENCY=0.247059,  SURF_ID='Gypsum'/ 
&OBST ID='Wall', XB=3.9,4.0,-2.775558E-17,1.7,2.7,5.4, RGB=146,202,166, TRANSPARENCY=0.247059,  SURF_ID='Gypsum'/ 
&OBST ID='Wall', XB=3.9,4.0,2.2,6.4,2.7,5.4, RGB=146,202,166, TRANSPARENCY=0.247059,  SURF_ID='Gypsum'/ 
&OBST ID='Wall', XB=0.0,1.0,3.4,3.5,5.5,7.5, SURF_ID='Gypsum'/ 
&OBST ID='Wall', XB=0.0,1.0,6.3,6.4,5.5,7.5, SURF_ID='Gypsum'/ 
&OBST ID='Wall', XB=0.0,2.9,1.0,1.1,5.5,7.5, RGB=146,202,166, TRANSPARENCY=0.247059,  SURF_ID='Gypsum'/ 
&OBST ID='Wall', XB=0.9,1.0,3.5,6.3,5.5,7.5, SURF_ID='Gypsum'/ 
&OBST ID='Wall', XB=1.0,2.9,4.6,4.7,5.5,7.5, RGB=146,202,166, TRANSPARENCY=0.247059,  SURF_ID='Gypsum'/ 
&OBST ID='Wall', XB=2.8,2.9,1.1,4.6,5.5,7.5, RGB=146,202,166, TRANSPARENCY=0.247059,  SURF_ID='Gypsum'/ 
&OBST ID='1st Floor', XB=-1.387779E-17,3.7,1.4,2.5,2.5,2.7, SURF_ID='Gypsum'/ 
&OBST ID='1st Floor', XB=-1.387779E-17,3.9,-1.387779E-17,1.4,2.5,2.7, SURF_ID='Gypsum'/ 
&OBST ID='1st Floor', XB=-1.387779E-17,3.9,2.5,4.5,2.5,2.7, SURF_ID='Gypsum'/ 
&OBST ID='1st Floor', XB=1.8,3.9,4.5,6.5,2.5,2.7, SURF_ID='Gypsum'/ 
&OBST ID='2nd Floor', XB=-2.775558E-17,3.7,1.7,2.2,5.2,5.4, SURF_ID='Gypsum'/ 
&OBST ID='2nd Floor', XB=-2.775558E-17,3.9,-2.775558E-17,1.7,5.2,5.4, SURF_ID='Gypsum'/ 
&OBST ID='2nd Floor', XB=-2.775558E-17,3.9,2.2,4.0,5.2,5.4, SURF_ID='Gypsum'/ 
&OBST ID='2nd Floor', XB=0.9,3.9,4.0,6.5,5.2,5.4, SURF_ID='Gypsum'/ 
&OBST ID='Loft Roof', XB=-0.1,0.6,0.9,6.5,7.5,7.7, RGB=146,202,166, TRANSPARENCY=0.247059, SURF_ID='Gypsum'/ 
&OBST ID='Loft Slant', XB=3.9,4.0,-0.1,6.5,5.4,5.5, RGB=146,202,166, TRANSPARENCY=0.247059, SURF_ID='Gypsum'/ 
&OBST ID='Loft Slant', XB=3.8,3.9,-0.1,6.5,5.5,5.5, RGB=146,202,166, TRANSPARENCY=0.247059, SURF_ID='Gypsum'/ 
&OBST ID='Loft Slant', XB=0.6,0.7,0.9,6.5,7.5,7.6, RGB=146,202,166, TRANSPARENCY=0.247059, SURF_ID='Gypsum'/ 
&OBST ID='Loft Slant', XB=0.7,0.8,0.9,6.5,7.4,7.6, RGB=146,202,166, TRANSPARENCY=0.247059, SURF_ID='Gypsum'/ 
&OBST ID='Loft Slant', XB=0.8,0.9,0.9,6.5,7.3,7.6, RGB=146,202,166, TRANSPARENCY=0.247059, SURF_ID='Gypsum'/ 
&OBST ID='Loft Slant', XB=0.9,1.0,0.9,6.5,7.3,7.5, RGB=146,202,166, TRANSPARENCY=0.247059, SURF_ID='Gypsum'/ 
&OBST ID='Loft Slant', XB=1.0,1.1,0.9,6.5,7.2,7.5, RGB=146,202,166, TRANSPARENCY=0.247059, SURF_ID='Gypsum'/ 
&OBST ID='Loft Slant', XB=1.1,1.2,0.9,6.5,7.2,7.4, RGB=146,202,166, TRANSPARENCY=0.247059, SURF_ID='Gypsum'/ 
&OBST ID='Loft Slant', XB=1.2,1.3,0.9,6.5,7.1,7.3, RGB=146,202,166, TRANSPARENCY=0.247059, SURF_ID='Gypsum'/ 
&OBST ID='Loft Slant', XB=1.3,1.4,0.9,6.5,7.0,7.3, RGB=146,202,166, TRANSPARENCY=0.247059, SURF_ID='Gypsum'/ 
&OBST ID='Loft Slant', XB=1.4,1.5,0.9,6.5,7.0,7.2, RGB=146,202,166, TRANSPARENCY=0.247059, SURF_ID='Gypsum'/ 
&OBST ID='Loft Slant', XB=1.5,1.6,0.9,6.5,6.9,7.1, RGB=146,202,166, TRANSPARENCY=0.247059, SURF_ID='Gypsum'/ 
&OBST ID='Loft Slant', XB=1.6,1.7,0.9,6.5,6.8,7.1, RGB=146,202,166, TRANSPARENCY=0.247059, SURF_ID='Gypsum'/ 
&OBST ID='Loft Slant', XB=1.7,1.8,0.9,6.5,6.8,7.0, RGB=146,202,166, TRANSPARENCY=0.247059, SURF_ID='Gypsum'/ 
&OBST ID='Loft Slant', XB=1.8,1.9,0.9,6.5,6.7,7.0, RGB=146,202,166, TRANSPARENCY=0.247059, SURF_ID='Gypsum'/ 
&OBST ID='Loft Slant', XB=1.9,2.0,0.9,6.5,6.7,6.9, RGB=146,202,166, TRANSPARENCY=0.247059, SURF_ID='Gypsum'/ 
&OBST ID='Loft Slant', XB=2.0,2.1,0.9,6.5,6.6,6.8, RGB=146,202,166, TRANSPARENCY=0.247059, SURF_ID='Gypsum'/ 
&OBST ID='Loft Slant', XB=2.1,2.2,0.9,6.5,6.5,6.8, RGB=146,202,166, TRANSPARENCY=0.247059, SURF_ID='Gypsum'/ 
&OBST ID='Loft Slant', XB=2.2,2.3,0.9,6.5,6.5,6.7, RGB=146,202,166, TRANSPARENCY=0.247059, SURF_ID='Gypsum'/ 
&OBST ID='Loft Slant', XB=2.3,2.5,0.9,6.5,6.4,6.6, RGB=146,202,166, TRANSPARENCY=0.247059, SURF_ID='Gypsum'/ 
&OBST ID='Loft Slant', XB=2.5,2.6,0.9,6.5,6.3,6.5, RGB=146,202,166, TRANSPARENCY=0.247059, SURF_ID='Gypsum'/ 
&OBST ID='Loft Slant', XB=2.6,2.7,0.9,6.5,6.2,6.5, RGB=146,202,166, TRANSPARENCY=0.247059, SURF_ID='Gypsum'/ 
&OBST ID='Loft Slant', XB=2.7,2.8,0.9,6.5,6.2,6.4, RGB=146,202,166, TRANSPARENCY=0.247059, SURF_ID='Gypsum'/ 
&OBST ID='Loft Slant', XB=2.8,2.9,0.9,6.5,6.1,6.3, RGB=146,202,166, TRANSPARENCY=0.247059, SURF_ID='Gypsum'/ 
&OBST ID='Loft Slant', XB=2.9,3.0,0.9,6.5,6.0,6.3, RGB=146,202,166, TRANSPARENCY=0.247059, SURF_ID='Gypsum'/ 
&OBST ID='Loft Slant', XB=0.7,0.7,0.9,6.5,7.6,7.7, RGB=146,202,166, TRANSPARENCY=0.247059, SURF_ID='Gypsum'/ 
&OBST ID='Obstruction', XB=-1.387779E-17,0.1,6.3,6.4,1.3,1.5/ 
&OBST ID='Obstruction', XB=-1.387779E-17,0.2,6.2,6.3,1.3,1.5/ 
&OBST ID='Obstruction', XB=-1.387779E-17,0.3,6.1,6.2,1.3,1.5/ 
&OBST ID='Obstruction', XB=-1.387779E-17,0.4,6.0,6.1,1.3,1.5/ 
&OBST ID='Obstruction', XB=-1.387779E-17,0.5,5.9,6.0,1.3,1.5/ 
&OBST ID='Obstruction', XB=-1.387779E-17,0.6,5.8,5.9,1.3,1.5/ 
&OBST ID='Obstruction', XB=-1.387779E-17,0.7,5.7,5.8,1.3,1.5/ 
&OBST ID='Obstruction', XB=-1.387779E-17,0.8,5.6,5.7,1.3,1.5/ 
&OBST ID='Obstruction', XB=0.1,0.9,6.3,6.4,1.1,1.3/ 
&OBST ID='Obstruction', XB=0.2,0.9,6.2,6.3,1.1,1.3/ 
&OBST ID='Obstruction', XB=0.3,0.9,6.1,6.2,1.1,1.3/ 
&OBST ID='Obstruction', XB=0.4,0.9,6.0,6.1,1.1,1.3/ 
&OBST ID='Obstruction', XB=0.5,0.9,5.9,6.0,1.1,1.3/ 
&OBST ID='Obstruction', XB=0.6,0.9,5.8,5.9,1.1,1.3/ 
&OBST ID='Obstruction', XB=0.7,0.9,5.7,5.8,1.1,1.3/ 
&OBST ID='Obstruction', XB=0.8,0.9,5.6,5.7,1.1,1.3/ 
&OBST ID='Obstruction', XB=0.9,1.0,5.6,5.7,0.9,1.1/ 
&OBST ID='Obstruction', XB=0.9,1.1,5.7,5.8,0.9,1.1/ 
&OBST ID='Obstruction', XB=0.9,1.2,5.8,5.9,0.9,1.1/ 
&OBST ID='Obstruction', XB=0.9,1.3,5.9,6.0,0.9,1.1/ 
&OBST ID='Obstruction', XB=0.9,1.4,6.0,6.1,0.9,1.1/ 
&OBST ID='Obstruction', XB=0.9,1.5,6.1,6.2,0.9,1.1/ 
&OBST ID='Obstruction', XB=0.9,1.6,6.2,6.3,0.9,1.1/ 
&OBST ID='Obstruction', XB=0.9,1.7,6.3,6.4,0.9,1.1/ 
&OBST ID='Obstruction', XB=1.0,1.8,5.6,5.7,0.7,0.9/ 
&OBST ID='Obstruction', XB=1.1,1.8,5.7,5.8,0.7,0.9/ 
&OBST ID='Obstruction', XB=1.2,1.8,5.8,5.9,0.7,0.9/ 
&OBST ID='Obstruction', XB=1.3,1.8,5.9,6.0,0.7,0.9/ 
&OBST ID='Obstruction', XB=1.4,1.8,6.0,6.1,0.7,0.9/ 
&OBST ID='Obstruction', XB=1.5,1.8,6.1,6.2,0.7,0.9/ 
&OBST ID='Obstruction', XB=1.6,1.8,6.2,6.3,0.7,0.9/ 
&OBST ID='Obstruction', XB=1.7,1.8,6.3,6.4,0.7,0.9/ 
&OBST ID='Obstruction', XB=-1.387779E-17,0.1,6.4,6.4,1.1,1.3/ 
&OBST ID='Obstruction', XB=0.8,0.9,5.6,5.6,1.3,1.5/ 
&OBST ID='Obstruction', XB=0.9,1.0,5.6,5.6,0.7,0.9/ 
&OBST ID='Obstruction', XB=1.7,1.8,6.4,6.4,0.9,1.1/ 
&OBST ID='Stair', XB=0.9,1.8,4.6,4.7,0.0,0.1/ 
&OBST ID='Stair', XB=0.9,1.8,4.7,4.9,0.0,0.2/ 
&OBST ID='Stair', XB=0.9,1.8,4.9,5.0,0.0,0.3/ 
&OBST ID='Stair', XB=0.9,1.8,5.0,5.1,0.1,0.3/ 
&OBST ID='Stair', XB=0.9,1.8,5.1,5.2,0.2,0.4/ 
&OBST ID='Stair', XB=0.9,1.8,5.2,5.3,0.2,0.5/ 
&OBST ID='Stair', XB=0.9,1.8,5.3,5.4,0.3,0.5/ 
&OBST ID='Stair', XB=0.9,1.8,5.4,5.5,0.4,0.6/ 
&OBST ID='Stair', XB=0.9,1.8,5.5,5.6,0.4,0.7/ 
&OBST ID='Stair', XB=0.9,1.8,5.6,5.7,0.5,0.6/ 
&OBST ID='Stair', XB=0.9,1.8,4.5,4.6,0.0,0.0/ 
&OBST ID='Stair', XB=-1.387779E-17,0.9,5.4,5.5,1.4,1.7/ 
&OBST ID='Stair', XB=-1.387779E-17,0.9,5.5,5.6,1.5,1.6/ 
&OBST ID='Stair', XB=-1.387779E-17,0.9,5.3,5.4,1.5,1.8/ 
&OBST ID='Stair', XB=-1.387779E-17,0.9,5.2,5.3,1.6,1.9/ 
&OBST ID='Stair', XB=-1.387779E-17,0.9,5.1,5.2,1.7,2.0/ 
&OBST ID='Stair', XB=-1.387779E-17,0.9,5.0,5.1,1.8,2.1/ 
&OBST ID='Stair', XB=-1.387779E-17,0.9,4.9,5.0,1.9,2.2/ 
&OBST ID='Stair', XB=-1.387779E-17,0.9,4.8,4.9,2.0,2.3/ 
&OBST ID='Stair', XB=-1.387779E-17,0.9,4.7,4.8,2.1,2.4/ 
&OBST ID='Stair', XB=-1.387779E-17,0.9,4.6,4.7,2.2,2.5/ 
&OBST ID='Stair', XB=-1.387779E-17,0.9,4.5,4.6,2.3,2.6/ 
&OBST ID='Stair', XB=-1.387779E-17,0.9,4.4,4.5,2.5,2.7/ 
&OBST ID='Stair', XB=0.9,1.8,4.5,4.7,2.6,2.7/ 
&OBST ID='Stair', XB=0.9,1.8,4.7,4.8,2.7,2.7/ 
&OBST ID='Stair', XB=-2.775558E-17,0.9,5.6,5.7,3.5,3.7, SURF_ID='Gypsum'/ 
&OBST ID='Stair', XB=-2.775558E-17,0.9,5.4,5.5,3.6,3.9, SURF_ID='Gypsum'/ 
&OBST ID='Stair', XB=-2.775558E-17,0.9,5.5,5.6,3.7,3.8, SURF_ID='Gypsum'/ 
&OBST ID='Stair', XB=-2.775558E-17,0.9,5.3,5.4,3.7,4.0, SURF_ID='Gypsum'/ 
&OBST ID='Stair', XB=-2.775558E-17,0.9,5.2,5.3,3.8,4.1, SURF_ID='Gypsum'/ 
&OBST ID='Stair', XB=-2.775558E-17,0.9,5.1,5.2,3.9,4.2, SURF_ID='Gypsum'/ 
&OBST ID='Stair', XB=-2.775558E-17,0.9,5.0,5.1,4.0,4.3, SURF_ID='Gypsum'/ 
&OBST ID='Stair', XB=-2.775558E-17,0.9,4.9,5.0,4.1,4.4, SURF_ID='Gypsum'/ 
&OBST ID='Stair', XB=-2.775558E-17,0.9,4.8,4.9,4.2,4.5, SURF_ID='Gypsum'/ 
&OBST ID='Stair', XB=-2.775558E-17,0.9,4.7,4.8,4.3,4.6, SURF_ID='Gypsum'/ 
&OBST ID='Stair', XB=-2.775558E-17,0.9,4.6,4.7,4.4,4.7, SURF_ID='Gypsum'/ 
&OBST ID='Stair', XB=-2.775558E-17,0.9,4.5,4.6,4.5,4.8, SURF_ID='Gypsum'/ 
&OBST ID='Stair', XB=-2.775558E-17,0.9,4.4,4.5,4.6,4.9, SURF_ID='Gypsum'/ 
&OBST ID='Stair', XB=-2.775558E-17,0.9,4.3,4.4,4.7,5.0, SURF_ID='Gypsum'/ 
&OBST ID='Stair', XB=-2.775558E-17,0.9,4.2,4.3,4.8,5.1, SURF_ID='Gypsum'/ 
&OBST ID='Stair', XB=-2.775558E-17,0.9,4.1,4.2,4.9,5.2, SURF_ID='Gypsum'/ 
&OBST ID='Stair', XB=-2.775558E-17,0.9,4.0,4.1,5.1,5.3, SURF_ID='Gypsum'/ 
&OBST ID='Stair', XB=-2.775558E-17,0.9,3.9,4.0,5.2,5.4, SURF_ID='Gypsum'/ 
&OBST ID='Stair', XB=-2.775558E-17,1.8,5.7,6.4,3.5,3.7, SURF_ID='Gypsum'/ 
&OBST ID='Stair', XB=0.9,1.8,4.6,4.7,2.7,2.8/ 
&OBST ID='Stair', XB=0.9,1.8,4.7,4.8,2.7,2.9/ 
&OBST ID='Stair', XB=0.9,1.8,4.8,4.9,2.7,3.0/ 